version 3
run Apps-0-20250107-00:52:00-682654
attr configname Apps
attr datetime 20250107-00:52:00
attr datetimef 20250107-005200
attr experiment Apps
attr inifile omnetpp.ini
attr iterationvars ""
attr iterationvarsd ""
attr iterationvarsf ""
attr measurement ""
attr network TimeSyncUEUE
attr processid 682654
attr repetition 0
attr replication #0
attr resultdir results
attr runnumber 0
attr seedset 0
config image-path ../../../inet4.5-2/images
config extends DL2,Apps0
config extends DL
config **.clock.oscillator.typename ConstantDriftOscillator
config *.FGS.**.clock.oscillator.driftRate -10ppm
config *.SwitchDN.clock.oscillator.driftRate 0ppm
config **.oscillator.driftRate uniform(10ppm,100ppm)
config *.**.hasTimeSynchronization true
config *.SwitchDN.gptp.gptpNodeType "\"MASTER_NODE\""
config *.SwitchDN.gptp.masterPorts "[\"eth0\",\"eth1\"]"
config *.SwitchDN.gptp.slavePort "\"\""
config *.SwitchS*.gptp.slavePort "\"eth0\""
config *.SwitchS1.gptp.masterPorts "[\"eth1\",\"eth2\",\"eth3\",\"eth4\"]"
config *.SwitchS2.gptp.masterPorts "[\"eth1\",\"eth2\"]"
config *.SwitchS3.gptp.masterPorts "[\"eth1\",\"eth2\"]"
config *.FGS.nwtt[*].gptp.domain[*].slavePort "\"eth0\""
config *.FGS.nwtt[*].gptp.domain[*].masterPorts "[\"tt0\",\"tt1\",\"tt2\"]"
config *.FGS.dstt[*].gptp.domain[*].slavePort "\"tt0\""
config *.FGS.dstt[*].gptp.domain[*].masterPorts "[\"eth0\"]"
config **.referenceClock "\"SwitchDN.clock\""
config *.visualizer.dataLinkVisualizer[0].displayLinks true
config *.visualizer.dataLinkVisualizer[0].activityLevel "\"protocol\""
config *.visualizer.dataLinkVisualizer[0].packetFilter "\"GptpSync\""
config *.visualizer.dataLinkVisualizer[0].lineColor "\"blue2\""
config *.visualizer.numInfoVisualizers 1
config *.visualizer.infoVisualizer[0].modules "\"*.*.clock\""
config *.SwitchDN.clock.displayStringTextFormat "\"time: %T\""
config *.*.clock.displayStringTextFormat "\"diff: %d\""
config *.Sensor*.numApps 1
config *.Sensor*.hasOutgoingStreams true
config *.Sensor*.app[0].typename UdpSourceApp
config *.SensorS1.app[0].display-name NovaPeca
config *.SensorS3.app[0].display-name PecasNaCaixa
config *.Sensor*.app[0].io.destAddress "\"PLC\""
config *.SensorS1.app[0].io.destPort 1011
config *.SensorS3.app[0].io.destPort 1031
config *.SensorS*.app[0].source.packetLength 64B
config *.SensorS*.app[0].source.productionInterval 20ms
config *.SensorS*.app[0].source.initialProductionOffset 2s
config *.CameraS1.numApps 1
config *.CameraS1.hasOutgoingStreams true
config *.CameraS1.app[0].io.destAddress "\"PLC\""
config *.CameraS1.app[0].typename UdpSourceApp
config *.CameraS1.app[0].display-name StatusPeca
config *.CameraS1.app[0].io.destPort 1012
config *.CameraS1.app[0].source.packetLength "1500B - 54B"
config *.CameraS1.app[0].source.productionInterval 15ms
config *.CameraS1.app[0].source.initialProductionOffset 2.0s
config *.RoboS*.numApps 2
config *.RoboS*.hasOutgoingStreams true
config *.RoboS*.hasIncomingStreams true
config *.RoboS*.app[0].io.destAddress "\"PLC\""
config *.RoboS*.app[0].typename UdpSourceApp
config *.RoboS1.app[0].display-name S2OuDesc
config *.RoboS2.app[0].display-name S3
config *.RoboS1.app[0].io.destPort 1014
config *.RoboS2.app[0].io.destPort 1022
config *.RoboS*.app[0].source.packetLength 128B
config *.RoboS*.app[0].source.productionInterval 5ms
config *.RoboS*.app[1].typename UdpSinkApp
config *.RoboS*.app[1].display-name fromPLC
config *.RoboS1.app[1].io.localPort 1013
config *.RoboS2.app[1].io.localPort 1021
config *.RoboS*.app[0].source.initialProductionOffset 2.00s
config *.PLC.numApps 13
config *.PLC.hasOutgoingStreams true
config *.PLC.hasIncomingStreams true
config *.PLC.app[0].typename UdpSinkApp
config *.PLC.app[1].typename UdpSinkApp
config *.PLC.app[2].typename UdpSinkApp
config *.PLC.app[3].typename UdpSinkApp
config *.PLC.app[4].typename UdpSinkApp
config *.PLC.app[5].typename UdpSourceApp
config *.PLC.app[6].typename UdpSourceApp
config *.PLC.app[7].typename UdpSourceApp
config *.PLC.app[8].typename UdpSinkApp
config *.PLC.app[9].typename UdpSinkApp
config *.PLC.app[10].typename UdpSinkApp
config *.PLC.app[11].typename UdpSourceApp
config *.PLC.app[12].typename UdpSourceApp
config *.PLC.app[0].display-name fromSensorS1
config *.PLC.app[0].io.localPort 1011
config *.PLC.app[1].display-name fromCameraS1
config *.PLC.app[1].io.localPort 1012
config *.PLC.app[2].display-name fromRoboS1
config *.PLC.app[2].io.localPort 1014
config *.PLC.app[3].display-name fromRoboS2
config *.PLC.app[3].io.localPort 1022
config *.PLC.app[4].display-name fromSensorS3
config *.PLC.app[4].io.localPort 1031
config *.PLC.app[5].display-name ToRoboS1
config *.PLC.app[5].io.destAddress "\"RoboS1\""
config *.PLC.app[5].io.destPort 1013
config *.PLC.app[5].source.packetLength 200B
config *.PLC.app[5].source.productionInterval 5ms
config *.PLC.app[6].display-name ToRoboS2
config *.PLC.app[6].io.destAddress "\"RoboS2\""
config *.PLC.app[6].io.destPort 1021
config *.PLC.app[6].source.packetLength 200B
config *.PLC.app[6].source.productionInterval 5ms
config *.PLC.app[7].display-name ToEsteiraS3
config *.PLC.app[7].io.destAddress "\"EsteiraS3\""
config *.PLC.app[7].io.destPort 1093
config *.PLC.app[7].source.packetLength 50B
config *.PLC.app[7].source.productionInterval 5ms
config *.PLC.app[5].source.initialProductionOffset 2.0s
config *.PLC.app[6].source.initialProductionOffset 2.0s
config *.PLC.app[7].source.initialProductionOffset 2.0s
config *.PLC.app[8].display-name fromEsteiraS1
config *.PLC.app[8].io.localPort 1081
config *.PLC.app[9].display-name fromEsteiraS2
config *.PLC.app[9].io.localPort 1082
config *.PLC.app[10].display-name fromEsteiraS3
config *.PLC.app[10].io.localPort 1083
config *.PLC.app[11].display-name ToEsteiraS1
config *.PLC.app[11].io.destAddress "\"EsteiraS1\""
config *.PLC.app[11].io.destPort 1091
config *.PLC.app[11].source.packetLength 50B
config *.PLC.app[11].source.productionInterval 5ms
config *.PLC.app[12].display-name ToEsteiraS2
config *.PLC.app[12].io.destAddress "\"EsteiraS2\""
config *.PLC.app[12].io.destPort 1092
config *.PLC.app[12].source.packetLength 50B
config *.PLC.app[12].source.productionInterval 5ms
config *.PLC.app[11].source.initialProductionOffset 2.0s
config *.PLC.app[12].source.initialProductionOffset 2.0s
config *.EsteiraS*.numApps 2
config *.EsteiraS*.hasIncomingStreams true
config *.EsteiraS*.app[0].typename UdpSinkApp
config *.EsteiraS*.app[1].typename UdpSourceApp
config *.EsteiraS*.app[0].typename UdpSinkApp
config *.EsteiraS*.app[0].display-name fromPLC
config *.EsteiraS1.app[0].io.localPort 1091
config *.EsteiraS2.app[0].io.localPort 1092
config *.EsteiraS3.app[0].io.localPort 1093
config *.EsteiraS*.app[1].display-name toPLC
config *.EsteiraS*.app[1].io.destAddress "\"PLC\""
config *.EsteiraS1.app[1].io.destPort 1081
config *.EsteiraS2.app[1].io.destPort 1082
config *.EsteiraS3.app[1].io.destPort 1083
config *.EsteiraS*.app[1].source.packetLength 50B
config *.EsteiraS*.app[1].source.productionInterval 5ms
config *.EsteiraS*.app[1].source.initialProductionOffset 2.0s
config network TimeSyncUEUE
config num-rngs 1
config sim-time-limit 50s
config **.TSNAppsTableFile "xmldoc(\"config/app.xml\")"
config *.histogramContainer.histograms "{s1: \"../../../deterministic6g_data/PD-Wireless-5G-1/s1-UL_wall.xml\",\n\t\t\t\t\t\t\t\t\ts24: \"../../../deterministic6g_data/PD-Wireless-5G-1/s24-UL_wall.xml\",\n\t\t\t\t\t\t\t\t\ts3: \"../../../deterministic6g_data/PD-Wireless-5G-1/s3-UL_wall.xml\",\n\t\t\t\t\t\t\t\t\ts4: \"../../../deterministic6g_data/PD-Wireless-5G-1/s4-UL_wall.xml\",\n\t\t\t\t\t\t\t\t\ts6: \"../../../deterministic6g_data/PD-Wireless-5G-1/s6-UL_wall.xml\",\n\t\t\t\t\t\t\t\t\ts7: \"../../../deterministic6g_data/PD-Wireless-5G-1/s7-UL_wall.xml\",\n\t\t\t\t\t\t\t\t\ts8: \"../../../deterministic6g_data/PD-Wireless-5G-1/s8-UL_wall.xml\",\n\t\t\t\t\t\t\t\t\ts9: \"../../../deterministic6g_data/PD-Wireless-5G-1/s9-UL_wall.xml\",\n\t\t\t\t\t\t\t\t\ts10: \"../../../deterministic6g_data/PD-Wireless-5G-1/s10-DL_wall.xml\",\n\t\t\t\t\t\t\t\t\ts19: \"../../../deterministic6g_data/PD-Wireless-5G-1/s19-DL_wall.xml\",\n\t\t\t\t\t\t\t\t\ts20: \"../../../deterministic6g_data/PD-Wireless-5G-1/s20-UL_wall.xml\",\n\t\t\t\t\t\t\t\t\ts25: \"../../../deterministic6g_data/PD-Wireless-5G-1/s25-DL_wall.xml\",\n\t\t\t\t\t\t\t\t\ts26: \"../../../deterministic6g_data/PD-Wireless-5G-1/s26-UL_wall.xml\",\n\t\t\t\t\t\t\t\t\tgPTP: \"../../../deterministic6g_data/PD-Wireless-5G-1/gPTP_cut.xml\"}"
config *.FGS.d*.delayUplink "rngProvider(\"histogramContainer\",\"s1\")"
config *.FGS.n*.delayDownlink "rngProvider(\"histogramContainer\",\"s10\")"
config *.FGS.d*.delayD2D "rngProvider(\"histogramContainer\",\"s1\")"
config *.visualizer.typename IntegratedMultiCanvasVisualizer
config *.visualizer.infoVisualizer[*].displayInfos true

par TimeSyncUEUE.SwitchS1.ethg$o[0].channel typename "\"inet.node.ethernet.Eth10M\""
par TimeSyncUEUE.SwitchS1.ethg$o[0].channel disabled false
attr mutable ""
par TimeSyncUEUE.SwitchS1.ethg$o[0].channel delay 5e-08s
attr mutable ""
attr unit s
par TimeSyncUEUE.SwitchS1.ethg$o[0].channel datarate 1e+07bps
attr mutable ""
attr unit bps
par TimeSyncUEUE.SwitchS1.ethg$o[0].channel ber 0
attr mutable ""
par TimeSyncUEUE.SwitchS1.ethg$o[0].channel per 0
attr mutable ""
par TimeSyncUEUE.SwitchS1.ethg$o[0].channel length 10m
attr unit m
par TimeSyncUEUE.FGS.dsttg$o[0].channel typename "\"inet.node.ethernet.Eth10M\""
par TimeSyncUEUE.FGS.dsttg$o[0].channel disabled false
attr mutable ""
par TimeSyncUEUE.FGS.dsttg$o[0].channel delay 5e-08s
attr mutable ""
attr unit s
par TimeSyncUEUE.FGS.dsttg$o[0].channel datarate 1e+07bps
attr mutable ""
attr unit bps
par TimeSyncUEUE.FGS.dsttg$o[0].channel ber 0
attr mutable ""
par TimeSyncUEUE.FGS.dsttg$o[0].channel per 0
attr mutable ""
par TimeSyncUEUE.FGS.dsttg$o[0].channel length 10m
attr unit m
par TimeSyncUEUE.SwitchS2.ethg$o[0].channel typename "\"inet.node.ethernet.Eth10M\""
par TimeSyncUEUE.SwitchS2.ethg$o[0].channel disabled false
attr mutable ""
par TimeSyncUEUE.SwitchS2.ethg$o[0].channel delay 5e-08s
attr mutable ""
attr unit s
par TimeSyncUEUE.SwitchS2.ethg$o[0].channel datarate 1e+07bps
attr mutable ""
attr unit bps
par TimeSyncUEUE.SwitchS2.ethg$o[0].channel ber 0
attr mutable ""
par TimeSyncUEUE.SwitchS2.ethg$o[0].channel per 0
attr mutable ""
par TimeSyncUEUE.SwitchS2.ethg$o[0].channel length 10m
attr unit m
par TimeSyncUEUE.FGS.dsttg$o[1].channel typename "\"inet.node.ethernet.Eth10M\""
par TimeSyncUEUE.FGS.dsttg$o[1].channel disabled false
attr mutable ""
par TimeSyncUEUE.FGS.dsttg$o[1].channel delay 5e-08s
attr mutable ""
attr unit s
par TimeSyncUEUE.FGS.dsttg$o[1].channel datarate 1e+07bps
attr mutable ""
attr unit bps
par TimeSyncUEUE.FGS.dsttg$o[1].channel ber 0
attr mutable ""
par TimeSyncUEUE.FGS.dsttg$o[1].channel per 0
attr mutable ""
par TimeSyncUEUE.FGS.dsttg$o[1].channel length 10m
attr unit m
par TimeSyncUEUE.SwitchS3.ethg$o[0].channel typename "\"inet.node.ethernet.Eth10M\""
par TimeSyncUEUE.SwitchS3.ethg$o[0].channel disabled false
attr mutable ""
par TimeSyncUEUE.SwitchS3.ethg$o[0].channel delay 5e-08s
attr mutable ""
attr unit s
par TimeSyncUEUE.SwitchS3.ethg$o[0].channel datarate 1e+07bps
attr mutable ""
attr unit bps
par TimeSyncUEUE.SwitchS3.ethg$o[0].channel ber 0
attr mutable ""
par TimeSyncUEUE.SwitchS3.ethg$o[0].channel per 0
attr mutable ""
par TimeSyncUEUE.SwitchS3.ethg$o[0].channel length 10m
attr unit m
par TimeSyncUEUE.FGS.dsttg$o[2].channel typename "\"inet.node.ethernet.Eth10M\""
par TimeSyncUEUE.FGS.dsttg$o[2].channel disabled false
attr mutable ""
par TimeSyncUEUE.FGS.dsttg$o[2].channel delay 5e-08s
attr mutable ""
attr unit s
par TimeSyncUEUE.FGS.dsttg$o[2].channel datarate 1e+07bps
attr mutable ""
attr unit bps
par TimeSyncUEUE.FGS.dsttg$o[2].channel ber 0
attr mutable ""
par TimeSyncUEUE.FGS.dsttg$o[2].channel per 0
attr mutable ""
par TimeSyncUEUE.FGS.dsttg$o[2].channel length 10m
attr unit m
par TimeSyncUEUE.SwitchDN.ethg$o[0].channel typename "\"inet.node.ethernet.Eth10M\""
par TimeSyncUEUE.SwitchDN.ethg$o[0].channel disabled false
attr mutable ""
par TimeSyncUEUE.SwitchDN.ethg$o[0].channel delay 5e-08s
attr mutable ""
attr unit s
par TimeSyncUEUE.SwitchDN.ethg$o[0].channel datarate 1e+07bps
attr mutable ""
attr unit bps
par TimeSyncUEUE.SwitchDN.ethg$o[0].channel ber 0
attr mutable ""
par TimeSyncUEUE.SwitchDN.ethg$o[0].channel per 0
attr mutable ""
par TimeSyncUEUE.SwitchDN.ethg$o[0].channel length 10m
attr unit m
par TimeSyncUEUE.FGS.nwttg$o[0].channel typename "\"inet.node.ethernet.Eth10M\""
par TimeSyncUEUE.FGS.nwttg$o[0].channel disabled false
attr mutable ""
par TimeSyncUEUE.FGS.nwttg$o[0].channel delay 5e-08s
attr mutable ""
attr unit s
par TimeSyncUEUE.FGS.nwttg$o[0].channel datarate 1e+07bps
attr mutable ""
attr unit bps
par TimeSyncUEUE.FGS.nwttg$o[0].channel ber 0
attr mutable ""
par TimeSyncUEUE.FGS.nwttg$o[0].channel per 0
attr mutable ""
par TimeSyncUEUE.FGS.nwttg$o[0].channel length 10m
attr unit m
par TimeSyncUEUE.SwitchS1.ethg$o[1].channel typename "\"inet.node.ethernet.Eth10M\""
par TimeSyncUEUE.SwitchS1.ethg$o[1].channel disabled false
attr mutable ""
par TimeSyncUEUE.SwitchS1.ethg$o[1].channel delay 5e-08s
attr mutable ""
attr unit s
par TimeSyncUEUE.SwitchS1.ethg$o[1].channel datarate 1e+07bps
attr mutable ""
attr unit bps
par TimeSyncUEUE.SwitchS1.ethg$o[1].channel ber 0
attr mutable ""
par TimeSyncUEUE.SwitchS1.ethg$o[1].channel per 0
attr mutable ""
par TimeSyncUEUE.SwitchS1.ethg$o[1].channel length 10m
attr unit m
par TimeSyncUEUE.SensorS1.ethg$o[0].channel typename "\"inet.node.ethernet.Eth10M\""
par TimeSyncUEUE.SensorS1.ethg$o[0].channel disabled false
attr mutable ""
par TimeSyncUEUE.SensorS1.ethg$o[0].channel delay 5e-08s
attr mutable ""
attr unit s
par TimeSyncUEUE.SensorS1.ethg$o[0].channel datarate 1e+07bps
attr mutable ""
attr unit bps
par TimeSyncUEUE.SensorS1.ethg$o[0].channel ber 0
attr mutable ""
par TimeSyncUEUE.SensorS1.ethg$o[0].channel per 0
attr mutable ""
par TimeSyncUEUE.SensorS1.ethg$o[0].channel length 10m
attr unit m
par TimeSyncUEUE.SwitchS1.ethg$o[2].channel typename "\"inet.node.ethernet.Eth10M\""
par TimeSyncUEUE.SwitchS1.ethg$o[2].channel disabled false
attr mutable ""
par TimeSyncUEUE.SwitchS1.ethg$o[2].channel delay 5e-08s
attr mutable ""
attr unit s
par TimeSyncUEUE.SwitchS1.ethg$o[2].channel datarate 1e+07bps
attr mutable ""
attr unit bps
par TimeSyncUEUE.SwitchS1.ethg$o[2].channel ber 0
attr mutable ""
par TimeSyncUEUE.SwitchS1.ethg$o[2].channel per 0
attr mutable ""
par TimeSyncUEUE.SwitchS1.ethg$o[2].channel length 10m
attr unit m
par TimeSyncUEUE.CameraS1.ethg$o[0].channel typename "\"inet.node.ethernet.Eth10M\""
par TimeSyncUEUE.CameraS1.ethg$o[0].channel disabled false
attr mutable ""
par TimeSyncUEUE.CameraS1.ethg$o[0].channel delay 5e-08s
attr mutable ""
attr unit s
par TimeSyncUEUE.CameraS1.ethg$o[0].channel datarate 1e+07bps
attr mutable ""
attr unit bps
par TimeSyncUEUE.CameraS1.ethg$o[0].channel ber 0
attr mutable ""
par TimeSyncUEUE.CameraS1.ethg$o[0].channel per 0
attr mutable ""
par TimeSyncUEUE.CameraS1.ethg$o[0].channel length 10m
attr unit m
par TimeSyncUEUE.SwitchS1.ethg$o[3].channel typename "\"inet.node.ethernet.Eth10M\""
par TimeSyncUEUE.SwitchS1.ethg$o[3].channel disabled false
attr mutable ""
par TimeSyncUEUE.SwitchS1.ethg$o[3].channel delay 5e-08s
attr mutable ""
attr unit s
par TimeSyncUEUE.SwitchS1.ethg$o[3].channel datarate 1e+07bps
attr mutable ""
attr unit bps
par TimeSyncUEUE.SwitchS1.ethg$o[3].channel ber 0
attr mutable ""
par TimeSyncUEUE.SwitchS1.ethg$o[3].channel per 0
attr mutable ""
par TimeSyncUEUE.SwitchS1.ethg$o[3].channel length 10m
attr unit m
par TimeSyncUEUE.EsteiraS1.ethg$o[0].channel typename "\"inet.node.ethernet.Eth10M\""
par TimeSyncUEUE.EsteiraS1.ethg$o[0].channel disabled false
attr mutable ""
par TimeSyncUEUE.EsteiraS1.ethg$o[0].channel delay 5e-08s
attr mutable ""
attr unit s
par TimeSyncUEUE.EsteiraS1.ethg$o[0].channel datarate 1e+07bps
attr mutable ""
attr unit bps
par TimeSyncUEUE.EsteiraS1.ethg$o[0].channel ber 0
attr mutable ""
par TimeSyncUEUE.EsteiraS1.ethg$o[0].channel per 0
attr mutable ""
par TimeSyncUEUE.EsteiraS1.ethg$o[0].channel length 10m
attr unit m
par TimeSyncUEUE.SwitchS1.ethg$o[4].channel typename "\"inet.node.ethernet.Eth10M\""
par TimeSyncUEUE.SwitchS1.ethg$o[4].channel disabled false
attr mutable ""
par TimeSyncUEUE.SwitchS1.ethg$o[4].channel delay 5e-08s
attr mutable ""
attr unit s
par TimeSyncUEUE.SwitchS1.ethg$o[4].channel datarate 1e+07bps
attr mutable ""
attr unit bps
par TimeSyncUEUE.SwitchS1.ethg$o[4].channel ber 0
attr mutable ""
par TimeSyncUEUE.SwitchS1.ethg$o[4].channel per 0
attr mutable ""
par TimeSyncUEUE.SwitchS1.ethg$o[4].channel length 10m
attr unit m
par TimeSyncUEUE.RoboS1.ethg$o[0].channel typename "\"inet.node.ethernet.Eth10M\""
par TimeSyncUEUE.RoboS1.ethg$o[0].channel disabled false
attr mutable ""
par TimeSyncUEUE.RoboS1.ethg$o[0].channel delay 5e-08s
attr mutable ""
attr unit s
par TimeSyncUEUE.RoboS1.ethg$o[0].channel datarate 1e+07bps
attr mutable ""
attr unit bps
par TimeSyncUEUE.RoboS1.ethg$o[0].channel ber 0
attr mutable ""
par TimeSyncUEUE.RoboS1.ethg$o[0].channel per 0
attr mutable ""
par TimeSyncUEUE.RoboS1.ethg$o[0].channel length 10m
attr unit m
par TimeSyncUEUE.SwitchS2.ethg$o[1].channel typename "\"inet.node.ethernet.Eth10M\""
par TimeSyncUEUE.SwitchS2.ethg$o[1].channel disabled false
attr mutable ""
par TimeSyncUEUE.SwitchS2.ethg$o[1].channel delay 5e-08s
attr mutable ""
attr unit s
par TimeSyncUEUE.SwitchS2.ethg$o[1].channel datarate 1e+07bps
attr mutable ""
attr unit bps
par TimeSyncUEUE.SwitchS2.ethg$o[1].channel ber 0
attr mutable ""
par TimeSyncUEUE.SwitchS2.ethg$o[1].channel per 0
attr mutable ""
par TimeSyncUEUE.SwitchS2.ethg$o[1].channel length 10m
attr unit m
par TimeSyncUEUE.EsteiraS2.ethg$o[0].channel typename "\"inet.node.ethernet.Eth10M\""
par TimeSyncUEUE.EsteiraS2.ethg$o[0].channel disabled false
attr mutable ""
par TimeSyncUEUE.EsteiraS2.ethg$o[0].channel delay 5e-08s
attr mutable ""
attr unit s
par TimeSyncUEUE.EsteiraS2.ethg$o[0].channel datarate 1e+07bps
attr mutable ""
attr unit bps
par TimeSyncUEUE.EsteiraS2.ethg$o[0].channel ber 0
attr mutable ""
par TimeSyncUEUE.EsteiraS2.ethg$o[0].channel per 0
attr mutable ""
par TimeSyncUEUE.EsteiraS2.ethg$o[0].channel length 10m
attr unit m
par TimeSyncUEUE.SwitchS2.ethg$o[2].channel typename "\"inet.node.ethernet.Eth10M\""
par TimeSyncUEUE.SwitchS2.ethg$o[2].channel disabled false
attr mutable ""
par TimeSyncUEUE.SwitchS2.ethg$o[2].channel delay 5e-08s
attr mutable ""
attr unit s
par TimeSyncUEUE.SwitchS2.ethg$o[2].channel datarate 1e+07bps
attr mutable ""
attr unit bps
par TimeSyncUEUE.SwitchS2.ethg$o[2].channel ber 0
attr mutable ""
par TimeSyncUEUE.SwitchS2.ethg$o[2].channel per 0
attr mutable ""
par TimeSyncUEUE.SwitchS2.ethg$o[2].channel length 10m
attr unit m
par TimeSyncUEUE.RoboS2.ethg$o[0].channel typename "\"inet.node.ethernet.Eth10M\""
par TimeSyncUEUE.RoboS2.ethg$o[0].channel disabled false
attr mutable ""
par TimeSyncUEUE.RoboS2.ethg$o[0].channel delay 5e-08s
attr mutable ""
attr unit s
par TimeSyncUEUE.RoboS2.ethg$o[0].channel datarate 1e+07bps
attr mutable ""
attr unit bps
par TimeSyncUEUE.RoboS2.ethg$o[0].channel ber 0
attr mutable ""
par TimeSyncUEUE.RoboS2.ethg$o[0].channel per 0
attr mutable ""
par TimeSyncUEUE.RoboS2.ethg$o[0].channel length 10m
attr unit m
par TimeSyncUEUE.SwitchS3.ethg$o[1].channel typename "\"inet.node.ethernet.Eth10M\""
par TimeSyncUEUE.SwitchS3.ethg$o[1].channel disabled false
attr mutable ""
par TimeSyncUEUE.SwitchS3.ethg$o[1].channel delay 5e-08s
attr mutable ""
attr unit s
par TimeSyncUEUE.SwitchS3.ethg$o[1].channel datarate 1e+07bps
attr mutable ""
attr unit bps
par TimeSyncUEUE.SwitchS3.ethg$o[1].channel ber 0
attr mutable ""
par TimeSyncUEUE.SwitchS3.ethg$o[1].channel per 0
attr mutable ""
par TimeSyncUEUE.SwitchS3.ethg$o[1].channel length 10m
attr unit m
par TimeSyncUEUE.SensorS3.ethg$o[0].channel typename "\"inet.node.ethernet.Eth10M\""
par TimeSyncUEUE.SensorS3.ethg$o[0].channel disabled false
attr mutable ""
par TimeSyncUEUE.SensorS3.ethg$o[0].channel delay 5e-08s
attr mutable ""
attr unit s
par TimeSyncUEUE.SensorS3.ethg$o[0].channel datarate 1e+07bps
attr mutable ""
attr unit bps
par TimeSyncUEUE.SensorS3.ethg$o[0].channel ber 0
attr mutable ""
par TimeSyncUEUE.SensorS3.ethg$o[0].channel per 0
attr mutable ""
par TimeSyncUEUE.SensorS3.ethg$o[0].channel length 10m
attr unit m
par TimeSyncUEUE.SwitchS3.ethg$o[2].channel typename "\"inet.node.ethernet.Eth10M\""
par TimeSyncUEUE.SwitchS3.ethg$o[2].channel disabled false
attr mutable ""
par TimeSyncUEUE.SwitchS3.ethg$o[2].channel delay 5e-08s
attr mutable ""
attr unit s
par TimeSyncUEUE.SwitchS3.ethg$o[2].channel datarate 1e+07bps
attr mutable ""
attr unit bps
par TimeSyncUEUE.SwitchS3.ethg$o[2].channel ber 0
attr mutable ""
par TimeSyncUEUE.SwitchS3.ethg$o[2].channel per 0
attr mutable ""
par TimeSyncUEUE.SwitchS3.ethg$o[2].channel length 10m
attr unit m
par TimeSyncUEUE.EsteiraS3.ethg$o[0].channel typename "\"inet.node.ethernet.Eth10M\""
par TimeSyncUEUE.EsteiraS3.ethg$o[0].channel disabled false
attr mutable ""
par TimeSyncUEUE.EsteiraS3.ethg$o[0].channel delay 5e-08s
attr mutable ""
attr unit s
par TimeSyncUEUE.EsteiraS3.ethg$o[0].channel datarate 1e+07bps
attr mutable ""
attr unit bps
par TimeSyncUEUE.EsteiraS3.ethg$o[0].channel ber 0
attr mutable ""
par TimeSyncUEUE.EsteiraS3.ethg$o[0].channel per 0
attr mutable ""
par TimeSyncUEUE.EsteiraS3.ethg$o[0].channel length 10m
attr unit m
par TimeSyncUEUE.SwitchDN.ethg$o[1].channel typename "\"inet.node.ethernet.Eth10M\""
par TimeSyncUEUE.SwitchDN.ethg$o[1].channel disabled false
attr mutable ""
par TimeSyncUEUE.SwitchDN.ethg$o[1].channel delay 5e-08s
attr mutable ""
attr unit s
par TimeSyncUEUE.SwitchDN.ethg$o[1].channel datarate 1e+07bps
attr mutable ""
attr unit bps
par TimeSyncUEUE.SwitchDN.ethg$o[1].channel ber 0
attr mutable ""
par TimeSyncUEUE.SwitchDN.ethg$o[1].channel per 0
attr mutable ""
par TimeSyncUEUE.SwitchDN.ethg$o[1].channel length 10m
attr unit m
par TimeSyncUEUE.PLC.ethg$o[0].channel typename "\"inet.node.ethernet.Eth10M\""
par TimeSyncUEUE.PLC.ethg$o[0].channel disabled false
attr mutable ""
par TimeSyncUEUE.PLC.ethg$o[0].channel delay 5e-08s
attr mutable ""
attr unit s
par TimeSyncUEUE.PLC.ethg$o[0].channel datarate 1e+07bps
attr mutable ""
attr unit bps
par TimeSyncUEUE.PLC.ethg$o[0].channel ber 0
attr mutable ""
par TimeSyncUEUE.PLC.ethg$o[0].channel per 0
attr mutable ""
par TimeSyncUEUE.PLC.ethg$o[0].channel length 10m
attr unit m
par TimeSyncUEUE.visualizer.sceneVisualizer[0] typename "\"inet.visualizer.canvas.scene.SceneCanvasVisualizer\""
par TimeSyncUEUE.visualizer.sceneVisualizer[0] visualizationTargetModule "\"^.^\""
par TimeSyncUEUE.visualizer.sceneVisualizer[0] visualizationSubjectModule "\"^.^\""
par TimeSyncUEUE.visualizer.sceneVisualizer[0] tags "\"\""
par TimeSyncUEUE.visualizer.sceneVisualizer[0] physicalEnvironmentModule "\"physicalEnvironment\""
par TimeSyncUEUE.visualizer.sceneVisualizer[0] networkNodeVisualizerModule "\"TimeSyncUEUE.visualizer.networkNodeVisualizer[0]\""
par TimeSyncUEUE.visualizer.sceneVisualizer[0] axisLength "nan m"
attr mutable ""
attr unit m
par TimeSyncUEUE.visualizer.sceneVisualizer[0] animationSpeed 0
par TimeSyncUEUE.visualizer.sceneVisualizer[0] sceneMinX "nan m"
attr unit m
par TimeSyncUEUE.visualizer.sceneVisualizer[0] sceneMinY "nan m"
attr unit m
par TimeSyncUEUE.visualizer.sceneVisualizer[0] sceneMinZ "nan m"
attr unit m
par TimeSyncUEUE.visualizer.sceneVisualizer[0] sceneMaxX "nan m"
attr unit m
par TimeSyncUEUE.visualizer.sceneVisualizer[0] sceneMaxY "nan m"
attr unit m
par TimeSyncUEUE.visualizer.sceneVisualizer[0] sceneMaxZ "nan m"
attr unit m
par TimeSyncUEUE.visualizer.sceneVisualizer[0] zIndex 0
par TimeSyncUEUE.visualizer.sceneVisualizer[0] viewAngle "\"x right y down z out\""
attr mutable ""
par TimeSyncUEUE.visualizer.sceneVisualizer[0] viewScale "\"1 1\""
attr mutable ""
par TimeSyncUEUE.visualizer.sceneVisualizer[0] viewTranslation "\"0 0\""
attr mutable ""
par TimeSyncUEUE.visualizer.sceneVisualizer[0] descriptionFigure "\"\""
par TimeSyncUEUE.visualizer.physicalEnvironmentVisualizer[0] typename "\"inet.visualizer.canvas.environment.PhysicalEnvironmentCanvasVisualizer\""
par TimeSyncUEUE.visualizer.physicalEnvironmentVisualizer[0] visualizationTargetModule "\"^.^\""
par TimeSyncUEUE.visualizer.physicalEnvironmentVisualizer[0] visualizationSubjectModule "\"^.^\""
par TimeSyncUEUE.visualizer.physicalEnvironmentVisualizer[0] tags "\"\""
par TimeSyncUEUE.visualizer.physicalEnvironmentVisualizer[0] physicalEnvironmentModule "\"physicalEnvironment\""
par TimeSyncUEUE.visualizer.physicalEnvironmentVisualizer[0] displayObjects true
par TimeSyncUEUE.visualizer.physicalEnvironmentVisualizer[0] zIndex 0
par TimeSyncUEUE.visualizer.networkNodeVisualizer[0] typename "\"inet.visualizer.canvas.scene.NetworkNodeCanvasVisualizer\""
par TimeSyncUEUE.visualizer.networkNodeVisualizer[0] visualizationTargetModule "\"^.^\""
par TimeSyncUEUE.visualizer.networkNodeVisualizer[0] visualizationSubjectModule "\"^.^\""
par TimeSyncUEUE.visualizer.networkNodeVisualizer[0] tags "\"\""
par TimeSyncUEUE.visualizer.networkNodeVisualizer[0] nodeFilter "\"*\""
attr mutable ""
par TimeSyncUEUE.visualizer.networkNodeVisualizer[0] annotationSpacing 4
par TimeSyncUEUE.visualizer.networkNodeVisualizer[0] placementPenalty 10
par TimeSyncUEUE.visualizer.networkNodeVisualizer[0] zIndex 0
par TimeSyncUEUE.visualizer.networkConnectionVisualizer[0] typename "\"inet.visualizer.canvas.scene.NetworkConnectionCanvasVisualizer\""
par TimeSyncUEUE.visualizer.networkConnectionVisualizer[0] visualizationTargetModule "\"^.^\""
par TimeSyncUEUE.visualizer.networkConnectionVisualizer[0] visualizationSubjectModule "\"^.^\""
par TimeSyncUEUE.visualizer.networkConnectionVisualizer[0] tags "\"\""
par TimeSyncUEUE.visualizer.networkConnectionVisualizer[0] displayNetworkConnections true
par TimeSyncUEUE.visualizer.networkConnectionVisualizer[0] nodeFilter "\"\""
attr mutable ""
par TimeSyncUEUE.visualizer.networkConnectionVisualizer[0] lineColor "\"black\""
par TimeSyncUEUE.visualizer.networkConnectionVisualizer[0] lineStyle "\"solid\""
par TimeSyncUEUE.visualizer.networkConnectionVisualizer[0] lineWidth 1
par TimeSyncUEUE.visualizer.networkConnectionVisualizer[0] zIndex 0
par TimeSyncUEUE.visualizer.mobilityVisualizer[0] typename "\"inet.visualizer.canvas.mobility.MobilityCanvasVisualizer\""
par TimeSyncUEUE.visualizer.mobilityVisualizer[0] visualizationTargetModule "\"^.^\""
par TimeSyncUEUE.visualizer.mobilityVisualizer[0] visualizationSubjectModule "\"^.^\""
par TimeSyncUEUE.visualizer.mobilityVisualizer[0] tags "\"\""
par TimeSyncUEUE.visualizer.mobilityVisualizer[0] networkNodeVisualizerModule "\"TimeSyncUEUE.visualizer.networkNodeVisualizer[0]\""
par TimeSyncUEUE.visualizer.mobilityVisualizer[0] displayMobility true
par TimeSyncUEUE.visualizer.mobilityVisualizer[0] animationSpeed 0
par TimeSyncUEUE.visualizer.mobilityVisualizer[0] moduleFilter "\"**.mobility\""
attr mutable ""
par TimeSyncUEUE.visualizer.mobilityVisualizer[0] displayPositions false
par TimeSyncUEUE.visualizer.mobilityVisualizer[0] positionCircleRadius 4
par TimeSyncUEUE.visualizer.mobilityVisualizer[0] positionCircleLineWidth 1
par TimeSyncUEUE.visualizer.mobilityVisualizer[0] positionCircleLineColor "\"dark\""
attr enum light,dark
par TimeSyncUEUE.visualizer.mobilityVisualizer[0] positionCircleFillColor "\"dark\""
attr enum light,dark
par TimeSyncUEUE.visualizer.mobilityVisualizer[0] displayOrientations false
par TimeSyncUEUE.visualizer.mobilityVisualizer[0] orientationPieRadius 32
par TimeSyncUEUE.visualizer.mobilityVisualizer[0] orientationPieSize 0.2
par TimeSyncUEUE.visualizer.mobilityVisualizer[0] orientationPieOpacity 0.25
par TimeSyncUEUE.visualizer.mobilityVisualizer[0] orientationLineColor "\"black\""
par TimeSyncUEUE.visualizer.mobilityVisualizer[0] orientationLineStyle "\"solid\""
par TimeSyncUEUE.visualizer.mobilityVisualizer[0] orientationLineWidth 1
par TimeSyncUEUE.visualizer.mobilityVisualizer[0] orientationFillColor "\"blue\""
par TimeSyncUEUE.visualizer.mobilityVisualizer[0] displayVelocities false
par TimeSyncUEUE.visualizer.mobilityVisualizer[0] velocityArrowScale 1
par TimeSyncUEUE.visualizer.mobilityVisualizer[0] velocityLineColor "\"black\""
par TimeSyncUEUE.visualizer.mobilityVisualizer[0] velocityLineStyle "\"solid\""
par TimeSyncUEUE.visualizer.mobilityVisualizer[0] velocityLineWidth 1
par TimeSyncUEUE.visualizer.mobilityVisualizer[0] displayMovementTrails false
par TimeSyncUEUE.visualizer.mobilityVisualizer[0] movementTrailLineColor "\"dark\""
attr enum light,dark
par TimeSyncUEUE.visualizer.mobilityVisualizer[0] movementTrailLineStyle "\"solid\""
par TimeSyncUEUE.visualizer.mobilityVisualizer[0] movementTrailLineWidth 1
par TimeSyncUEUE.visualizer.mobilityVisualizer[0] trailLength 100
par TimeSyncUEUE.visualizer.mobilityVisualizer[0] zIndex 0
par TimeSyncUEUE.visualizer.statisticVisualizer[0] typename "\"inet.visualizer.canvas.common.StatisticCanvasVisualizer\""
par TimeSyncUEUE.visualizer.statisticVisualizer[0] visualizationTargetModule "\"^.^\""
par TimeSyncUEUE.visualizer.statisticVisualizer[0] visualizationSubjectModule "\"^.^\""
par TimeSyncUEUE.visualizer.statisticVisualizer[0] tags "\"\""
par TimeSyncUEUE.visualizer.statisticVisualizer[0] networkNodeVisualizerModule "\"TimeSyncUEUE.visualizer.networkNodeVisualizer[0]\""
par TimeSyncUEUE.visualizer.statisticVisualizer[0] displayStatistics true
par TimeSyncUEUE.visualizer.statisticVisualizer[0] signalName "\"\""
par TimeSyncUEUE.visualizer.statisticVisualizer[0] statisticName "\"\""
par TimeSyncUEUE.visualizer.statisticVisualizer[0] statisticUnit "\"\""
par TimeSyncUEUE.visualizer.statisticVisualizer[0] statisticExpression "\"\""
par TimeSyncUEUE.visualizer.statisticVisualizer[0] sourceFilter "\"**\""
attr mutable ""
par TimeSyncUEUE.visualizer.statisticVisualizer[0] format "\"%n: %v %u\""
attr mutable ""
par TimeSyncUEUE.visualizer.statisticVisualizer[0] unit "\"\""
par TimeSyncUEUE.visualizer.statisticVisualizer[0] font "\"<default>\""
par TimeSyncUEUE.visualizer.statisticVisualizer[0] textColor "\"black\""
par TimeSyncUEUE.visualizer.statisticVisualizer[0] backgroundColor "\"white\""
par TimeSyncUEUE.visualizer.statisticVisualizer[0] opacity 1
par TimeSyncUEUE.visualizer.statisticVisualizer[0] placementHint "\"top\""
par TimeSyncUEUE.visualizer.statisticVisualizer[0] placementPriority 0
par TimeSyncUEUE.visualizer.statisticVisualizer[0] zIndex 10
par TimeSyncUEUE.visualizer.statisticVisualizer[0] propertyName "\"\""
par TimeSyncUEUE.visualizer.statisticVisualizer[0] propertyIndex "\"\""
par TimeSyncUEUE.visualizer.infoVisualizer[0] typename "\"inet.visualizer.canvas.common.InfoCanvasVisualizer\""
par TimeSyncUEUE.visualizer.infoVisualizer[0] visualizationTargetModule "\"^.^\""
par TimeSyncUEUE.visualizer.infoVisualizer[0] visualizationSubjectModule "\"^.^\""
par TimeSyncUEUE.visualizer.infoVisualizer[0] tags "\"\""
par TimeSyncUEUE.visualizer.infoVisualizer[0] networkNodeVisualizerModule "\"TimeSyncUEUE.visualizer.networkNodeVisualizer[0]\""
par TimeSyncUEUE.visualizer.infoVisualizer[0] displayInfos true
par TimeSyncUEUE.visualizer.infoVisualizer[0] modules "\"*.*.clock\""
attr mutable ""
par TimeSyncUEUE.visualizer.infoVisualizer[0] format "\"%t\""
attr mutable ""
par TimeSyncUEUE.visualizer.infoVisualizer[0] font "\"<default>\""
par TimeSyncUEUE.visualizer.infoVisualizer[0] textColor "\"black\""
par TimeSyncUEUE.visualizer.infoVisualizer[0] backgroundColor "\"white\""
par TimeSyncUEUE.visualizer.infoVisualizer[0] opacity 1
par TimeSyncUEUE.visualizer.infoVisualizer[0] placementHint "\"top\""
par TimeSyncUEUE.visualizer.infoVisualizer[0] placementPriority 0
par TimeSyncUEUE.visualizer.infoVisualizer[0] zIndex 10
par TimeSyncUEUE.visualizer.energyStorageVisualizer[0] typename "\"inet.visualizer.canvas.power.EnergyStorageCanvasVisualizer\""
par TimeSyncUEUE.visualizer.energyStorageVisualizer[0] visualizationTargetModule "\"^.^\""
par TimeSyncUEUE.visualizer.energyStorageVisualizer[0] visualizationSubjectModule "\"^.^\""
par TimeSyncUEUE.visualizer.energyStorageVisualizer[0] tags "\"\""
par TimeSyncUEUE.visualizer.energyStorageVisualizer[0] networkNodeVisualizerModule "\"TimeSyncUEUE.visualizer.networkNodeVisualizer[0]\""
par TimeSyncUEUE.visualizer.energyStorageVisualizer[0] displayEnergyStorages false
par TimeSyncUEUE.visualizer.energyStorageVisualizer[0] energyStorageFilter "\"**\""
par TimeSyncUEUE.visualizer.energyStorageVisualizer[0] color "\"green\""
par TimeSyncUEUE.visualizer.energyStorageVisualizer[0] width 8
par TimeSyncUEUE.visualizer.energyStorageVisualizer[0] height 24
par TimeSyncUEUE.visualizer.energyStorageVisualizer[0] spacing 2
par TimeSyncUEUE.visualizer.energyStorageVisualizer[0] placementHint "\"right\""
par TimeSyncUEUE.visualizer.energyStorageVisualizer[0] placementPriority 0
par TimeSyncUEUE.visualizer.energyStorageVisualizer[0] zIndex 10
par TimeSyncUEUE.visualizer.mediumVisualizer[0] typename "\"inet.visualizer.canvas.physicallayer.MediumCanvasVisualizer\""
par TimeSyncUEUE.visualizer.mediumVisualizer[0] visualizationTargetModule "\"^.^\""
par TimeSyncUEUE.visualizer.mediumVisualizer[0] visualizationSubjectModule "\"^.^\""
par TimeSyncUEUE.visualizer.mediumVisualizer[0] tags "\"\""
par TimeSyncUEUE.visualizer.mediumVisualizer[0] mediumModule "\"radioMedium\""
par TimeSyncUEUE.visualizer.mediumVisualizer[0] networkNodeVisualizerModule "\"TimeSyncUEUE.visualizer.networkNodeVisualizer[0]\""
par TimeSyncUEUE.visualizer.mediumVisualizer[0] nodeFilter "\"*\""
attr mutable ""
par TimeSyncUEUE.visualizer.mediumVisualizer[0] interfaceFilter "\"*\""
attr mutable ""
par TimeSyncUEUE.visualizer.mediumVisualizer[0] packetFilter "(omnetpp::cValueHolder)holder: \"*\""
attr mutable ""
par TimeSyncUEUE.visualizer.mediumVisualizer[0] displaySignals false
par TimeSyncUEUE.visualizer.mediumVisualizer[0] signalColor "\"dark\""
attr enum light,dark
par TimeSyncUEUE.visualizer.mediumVisualizer[0] signalPropagationAnimationSpeed "nan "
attr mutable ""
par TimeSyncUEUE.visualizer.mediumVisualizer[0] signalPropagationAnimationTime 1s
attr unit s
par TimeSyncUEUE.visualizer.mediumVisualizer[0] signalPropagationAdditionalTime 0s
attr unit s
par TimeSyncUEUE.visualizer.mediumVisualizer[0] signalTransmissionAnimationSpeed "nan "
attr mutable ""
par TimeSyncUEUE.visualizer.mediumVisualizer[0] signalTransmissionAnimationTime 1s
attr unit s
par TimeSyncUEUE.visualizer.mediumVisualizer[0] signalAnimationSpeedChangeTimeMode "\"realTime\""
attr enum realTime,animationTime,simulationTime
par TimeSyncUEUE.visualizer.mediumVisualizer[0] signalAnimationSpeedChangeTime 1s
attr unit s
par TimeSyncUEUE.visualizer.mediumVisualizer[0] displaySignalDepartures false
par TimeSyncUEUE.visualizer.mediumVisualizer[0] signalDepartureImage "\"misc/signal_departure.png\""
par TimeSyncUEUE.visualizer.mediumVisualizer[0] signalDeparturePlacementHint "\"topCenter\""
par TimeSyncUEUE.visualizer.mediumVisualizer[0] signalDeparturePlacementPriority 1
par TimeSyncUEUE.visualizer.mediumVisualizer[0] displaySignalArrivals false
par TimeSyncUEUE.visualizer.mediumVisualizer[0] signalArrivalImage "\"misc/signal_arrival.png\""
par TimeSyncUEUE.visualizer.mediumVisualizer[0] signalArrivalPlacementHint "\"topCenter\""
par TimeSyncUEUE.visualizer.mediumVisualizer[0] signalArrivalPlacementPriority -1
par TimeSyncUEUE.visualizer.mediumVisualizer[0] displayCommunicationRanges false
par TimeSyncUEUE.visualizer.mediumVisualizer[0] communicationRangeLineColor "\"blue\""
par TimeSyncUEUE.visualizer.mediumVisualizer[0] communicationRangeLineStyle "\"solid\""
par TimeSyncUEUE.visualizer.mediumVisualizer[0] communicationRangeLineWidth 1
par TimeSyncUEUE.visualizer.mediumVisualizer[0] displayInterferenceRanges false
par TimeSyncUEUE.visualizer.mediumVisualizer[0] interferenceRangeLineColor "\"gray\""
par TimeSyncUEUE.visualizer.mediumVisualizer[0] interferenceRangeLineStyle "\"solid\""
par TimeSyncUEUE.visualizer.mediumVisualizer[0] interferenceRangeLineWidth 1
par TimeSyncUEUE.visualizer.mediumVisualizer[0] autoPowerAxis true
par TimeSyncUEUE.visualizer.mediumVisualizer[0] signalMinPower "inf dBmW"
attr unit dBmW
par TimeSyncUEUE.visualizer.mediumVisualizer[0] signalMaxPower 0dBmW
attr unit dBmW
par TimeSyncUEUE.visualizer.mediumVisualizer[0] signalMinPowerDensity "inf dBmWpMHz"
attr unit dBmWpMHz
par TimeSyncUEUE.visualizer.mediumVisualizer[0] signalMaxPowerDensity "-inf dBmWpMHz"
attr unit dBmWpMHz
par TimeSyncUEUE.visualizer.mediumVisualizer[0] autoTimeAxis true
par TimeSyncUEUE.visualizer.mediumVisualizer[0] signalMinTime 0s
attr unit s
par TimeSyncUEUE.visualizer.mediumVisualizer[0] signalMaxTime 0s
attr unit s
par TimeSyncUEUE.visualizer.mediumVisualizer[0] autoFrequencyAxis true
par TimeSyncUEUE.visualizer.mediumVisualizer[0] signalMinFrequency "inf Hz"
attr unit Hz
par TimeSyncUEUE.visualizer.mediumVisualizer[0] signalMaxFrequency "-inf Hz"
attr unit Hz
par TimeSyncUEUE.visualizer.mediumVisualizer[0] displayMainPowerDensityMap false
par TimeSyncUEUE.visualizer.mediumVisualizer[0] mainPowerDensityMapPixmapDensity 1
par TimeSyncUEUE.visualizer.mediumVisualizer[0] mainPowerDensityMapMinX 0
par TimeSyncUEUE.visualizer.mediumVisualizer[0] mainPowerDensityMapMaxX "nan "
par TimeSyncUEUE.visualizer.mediumVisualizer[0] mainPowerDensityMapMinY 0
par TimeSyncUEUE.visualizer.mediumVisualizer[0] mainPowerDensityMapMaxY "nan "
par TimeSyncUEUE.visualizer.mediumVisualizer[0] mainPowerDensityMapZ 0
par TimeSyncUEUE.visualizer.mediumVisualizer[0] mainPowerDensityMapFigureXTickCount 3
par TimeSyncUEUE.visualizer.mediumVisualizer[0] mainPowerDensityMapFigureYTickCount 3
par TimeSyncUEUE.visualizer.mediumVisualizer[0] displayPowerDensityMaps false
par TimeSyncUEUE.visualizer.mediumVisualizer[0] powerDensityMapMode "\"auto\""
attr enum total,signal,auto
par TimeSyncUEUE.visualizer.mediumVisualizer[0] powerDensityMapPixelMode "\"mean\""
attr enum sample,partition,mean
par TimeSyncUEUE.visualizer.mediumVisualizer[0] powerDensityMapApproximationSize 10
par TimeSyncUEUE.visualizer.mediumVisualizer[0] powerDensityMapCenterFrequency "nan Hz"
attr mutable ""
attr unit Hz
par TimeSyncUEUE.visualizer.mediumVisualizer[0] powerDensityMapBandwidth 0Hz
attr mutable ""
attr unit Hz
par TimeSyncUEUE.visualizer.mediumVisualizer[0] powerDensityMapFigureWidth 200
par TimeSyncUEUE.visualizer.mediumVisualizer[0] powerDensityMapFigureHeight 120
par TimeSyncUEUE.visualizer.mediumVisualizer[0] powerDensityMapPixmapWidth 200
par TimeSyncUEUE.visualizer.mediumVisualizer[0] powerDensityMapPixmapHeight 120
par TimeSyncUEUE.visualizer.mediumVisualizer[0] powerDensityMapZ 0
par TimeSyncUEUE.visualizer.mediumVisualizer[0] powerDensityMapFigureXTickCount 3
par TimeSyncUEUE.visualizer.mediumVisualizer[0] powerDensityMapFigureYTickCount 3
par TimeSyncUEUE.visualizer.mediumVisualizer[0] displaySpectrums false
par TimeSyncUEUE.visualizer.mediumVisualizer[0] spectrumMode "\"auto\""
attr enum total,signal,auto
par TimeSyncUEUE.visualizer.mediumVisualizer[0] spectrumFigureWidth 200
par TimeSyncUEUE.visualizer.mediumVisualizer[0] spectrumFigureHeight 120
par TimeSyncUEUE.visualizer.mediumVisualizer[0] spectrumFigureXTickCount 3
par TimeSyncUEUE.visualizer.mediumVisualizer[0] spectrumFigureYTickCount 5
par TimeSyncUEUE.visualizer.mediumVisualizer[0] spectrumFigureInterpolationSize 5
par TimeSyncUEUE.visualizer.mediumVisualizer[0] spectrumPlacementHint "\"bottomCenter\""
par TimeSyncUEUE.visualizer.mediumVisualizer[0] spectrumPlacementPriority -1
par TimeSyncUEUE.visualizer.mediumVisualizer[0] displaySpectrograms false
par TimeSyncUEUE.visualizer.mediumVisualizer[0] spectrogramMode "\"auto\""
attr enum total,signal,auto
par TimeSyncUEUE.visualizer.mediumVisualizer[0] spectrogramPixelMode "\"mean\""
attr enum sample,partition,mean
par TimeSyncUEUE.visualizer.mediumVisualizer[0] spectrogramFigureWidth 200
par TimeSyncUEUE.visualizer.mediumVisualizer[0] spectrogramFigureHeight 120
par TimeSyncUEUE.visualizer.mediumVisualizer[0] spectrogramPixmapWidth 200
par TimeSyncUEUE.visualizer.mediumVisualizer[0] spectrogramPixmapHeight 120
par TimeSyncUEUE.visualizer.mediumVisualizer[0] spectrogramFigureXTickCount 3
par TimeSyncUEUE.visualizer.mediumVisualizer[0] spectrogramFigureYTickCount 5
par TimeSyncUEUE.visualizer.mediumVisualizer[0] spectrogramPlacementHint "\"bottomCenter\""
par TimeSyncUEUE.visualizer.mediumVisualizer[0] spectrogramPlacementPriority -1
par TimeSyncUEUE.visualizer.mediumVisualizer[0] zIndex 0
par TimeSyncUEUE.visualizer.mediumVisualizer[0] signalShape "\"ring\""
attr enum ring,sphere
par TimeSyncUEUE.visualizer.mediumVisualizer[0] signalOpacity 0.5
par TimeSyncUEUE.visualizer.mediumVisualizer[0] signalRingCount 20
par TimeSyncUEUE.visualizer.mediumVisualizer[0] signalRingSize 50m
attr unit m
par TimeSyncUEUE.visualizer.mediumVisualizer[0] signalFadingDistance 50m
attr unit m
par TimeSyncUEUE.visualizer.mediumVisualizer[0] signalFadingFactor 1.2
par TimeSyncUEUE.visualizer.mediumVisualizer[0] signalWaveCount 20
par TimeSyncUEUE.visualizer.mediumVisualizer[0] signalWaveLength 50m
attr unit m
par TimeSyncUEUE.visualizer.mediumVisualizer[0] signalWaveWidth 10m
attr unit m
par TimeSyncUEUE.visualizer.mediumVisualizer[0] signalWaveFadingAnimationSpeedFactor 1
par TimeSyncUEUE.visualizer.mediumVisualizer[0] displayCommunicationHeat false
par TimeSyncUEUE.visualizer.obstacleLossVisualizer[0] typename "\"inet.visualizer.canvas.physicallayer.TracingObstacleLossCanvasVisualizer\""
par TimeSyncUEUE.visualizer.obstacleLossVisualizer[0] visualizationTargetModule "\"^.^\""
par TimeSyncUEUE.visualizer.obstacleLossVisualizer[0] visualizationSubjectModule "\"^.^\""
par TimeSyncUEUE.visualizer.obstacleLossVisualizer[0] tags "\"\""
par TimeSyncUEUE.visualizer.obstacleLossVisualizer[0] displayIntersections false
par TimeSyncUEUE.visualizer.obstacleLossVisualizer[0] intersectionLineColor "\"red\""
par TimeSyncUEUE.visualizer.obstacleLossVisualizer[0] intersectionLineStyle "\"solid\""
par TimeSyncUEUE.visualizer.obstacleLossVisualizer[0] intersectionLineWidth 1
par TimeSyncUEUE.visualizer.obstacleLossVisualizer[0] displayFaceNormalVectors false
par TimeSyncUEUE.visualizer.obstacleLossVisualizer[0] faceNormalLineColor "\"grey\""
par TimeSyncUEUE.visualizer.obstacleLossVisualizer[0] faceNormalLineStyle "\"solid\""
par TimeSyncUEUE.visualizer.obstacleLossVisualizer[0] faceNormalLineWidth 1
par TimeSyncUEUE.visualizer.obstacleLossVisualizer[0] fadeOutMode "\"realTime\""
attr enum realTime,animationTime,simulationTime
par TimeSyncUEUE.visualizer.obstacleLossVisualizer[0] fadeOutTime 1s
attr unit s
par TimeSyncUEUE.visualizer.obstacleLossVisualizer[0] fadeOutAnimationSpeed 0
par TimeSyncUEUE.visualizer.obstacleLossVisualizer[0] zIndex 0
par TimeSyncUEUE.visualizer.packetDropVisualizer[0] typename "\"inet.visualizer.canvas.common.PacketDropCanvasVisualizer\""
par TimeSyncUEUE.visualizer.packetDropVisualizer[0] visualizationTargetModule "\"^.^\""
par TimeSyncUEUE.visualizer.packetDropVisualizer[0] visualizationSubjectModule "\"^.^\""
par TimeSyncUEUE.visualizer.packetDropVisualizer[0] tags "\"\""
par TimeSyncUEUE.visualizer.packetDropVisualizer[0] displayPacketDrops false
par TimeSyncUEUE.visualizer.packetDropVisualizer[0] nodeFilter "\"*\""
attr mutable ""
par TimeSyncUEUE.visualizer.packetDropVisualizer[0] interfaceFilter "\"*\""
attr mutable ""
par TimeSyncUEUE.visualizer.packetDropVisualizer[0] packetFilter "(omnetpp::cValueHolder)holder: \"*\""
attr mutable ""
par TimeSyncUEUE.visualizer.packetDropVisualizer[0] detailsFilter "\"*\""
attr mutable ""
par TimeSyncUEUE.visualizer.packetDropVisualizer[0] icon "\"msg/packet_s\""
par TimeSyncUEUE.visualizer.packetDropVisualizer[0] iconTintAmount 1
par TimeSyncUEUE.visualizer.packetDropVisualizer[0] iconTintColor "\"dark\""
par TimeSyncUEUE.visualizer.packetDropVisualizer[0] labelFormat "\"%n\""
attr mutable ""
par TimeSyncUEUE.visualizer.packetDropVisualizer[0] labelFont "\"<default>\""
par TimeSyncUEUE.visualizer.packetDropVisualizer[0] labelColor "\"black\""
par TimeSyncUEUE.visualizer.packetDropVisualizer[0] fadeOutMode "\"realTime\""
attr enum realTime,animationTime,simulationTime
par TimeSyncUEUE.visualizer.packetDropVisualizer[0] fadeOutTime 1s
attr unit s
par TimeSyncUEUE.visualizer.packetDropVisualizer[0] fadeOutAnimationSpeed 0
par TimeSyncUEUE.visualizer.packetDropVisualizer[0] zIndex 10
par TimeSyncUEUE.visualizer.packetDropVisualizer[0] dx 32
par TimeSyncUEUE.visualizer.packetDropVisualizer[0] dy 64
par TimeSyncUEUE.visualizer.queueVisualizer[0] typename "\"inet.visualizer.canvas.common.QueueCanvasVisualizer\""
par TimeSyncUEUE.visualizer.queueVisualizer[0] visualizationTargetModule "\"^.^\""
par TimeSyncUEUE.visualizer.queueVisualizer[0] visualizationSubjectModule "\"^.^\""
par TimeSyncUEUE.visualizer.queueVisualizer[0] tags "\"\""
par TimeSyncUEUE.visualizer.queueVisualizer[0] networkNodeVisualizerModule "\"TimeSyncUEUE.visualizer.networkNodeVisualizer[0]\""
par TimeSyncUEUE.visualizer.queueVisualizer[0] displayQueues false
par TimeSyncUEUE.visualizer.queueVisualizer[0] queueFilter "\"**\""
par TimeSyncUEUE.visualizer.queueVisualizer[0] color "\"blue\""
par TimeSyncUEUE.visualizer.queueVisualizer[0] width 8
par TimeSyncUEUE.visualizer.queueVisualizer[0] height 24
par TimeSyncUEUE.visualizer.queueVisualizer[0] spacing 2
par TimeSyncUEUE.visualizer.queueVisualizer[0] placementHint "\"right\""
par TimeSyncUEUE.visualizer.queueVisualizer[0] placementPriority 0
par TimeSyncUEUE.visualizer.queueVisualizer[0] zIndex 10
par TimeSyncUEUE.visualizer.gateScheduleVisualizer[0] typename "\"inet.visualizer.canvas.common.GateScheduleCanvasVisualizer\""
par TimeSyncUEUE.visualizer.gateScheduleVisualizer[0] visualizationTargetModule "\"^.^\""
par TimeSyncUEUE.visualizer.gateScheduleVisualizer[0] visualizationSubjectModule "\"^.^\""
par TimeSyncUEUE.visualizer.gateScheduleVisualizer[0] tags "\"\""
par TimeSyncUEUE.visualizer.gateScheduleVisualizer[0] networkNodeVisualizerModule "\"TimeSyncUEUE.visualizer.networkNodeVisualizer[0]\""
par TimeSyncUEUE.visualizer.gateScheduleVisualizer[0] displayGateSchedules false
par TimeSyncUEUE.visualizer.gateScheduleVisualizer[0] labelFormat "\"%i %D\""
par TimeSyncUEUE.visualizer.gateScheduleVisualizer[0] gateFilter "\"**\""
par TimeSyncUEUE.visualizer.gateScheduleVisualizer[0] width 100
par TimeSyncUEUE.visualizer.gateScheduleVisualizer[0] height 8
par TimeSyncUEUE.visualizer.gateScheduleVisualizer[0] spacing 2
par TimeSyncUEUE.visualizer.gateScheduleVisualizer[0] placementHint "\"right\""
par TimeSyncUEUE.visualizer.gateScheduleVisualizer[0] placementPriority 0
par TimeSyncUEUE.visualizer.gateScheduleVisualizer[0] displayDuration 0s
attr mutable ""
attr unit s
par TimeSyncUEUE.visualizer.gateScheduleVisualizer[0] currentTimePosition 50
par TimeSyncUEUE.visualizer.gateScheduleVisualizer[0] zIndex 10
par TimeSyncUEUE.visualizer.radioVisualizer[0] typename "\"inet.visualizer.canvas.physicallayer.RadioCanvasVisualizer\""
par TimeSyncUEUE.visualizer.radioVisualizer[0] visualizationTargetModule "\"^.^\""
par TimeSyncUEUE.visualizer.radioVisualizer[0] visualizationSubjectModule "\"^.^\""
par TimeSyncUEUE.visualizer.radioVisualizer[0] tags "\"\""
par TimeSyncUEUE.visualizer.radioVisualizer[0] networkNodeVisualizerModule "\"TimeSyncUEUE.visualizer.networkNodeVisualizer[0]\""
par TimeSyncUEUE.visualizer.radioVisualizer[0] displayRadios false
par TimeSyncUEUE.visualizer.radioVisualizer[0] displayRadioMode true
par TimeSyncUEUE.visualizer.radioVisualizer[0] displayReceptionState true
par TimeSyncUEUE.visualizer.radioVisualizer[0] displayTransmissionState true
par TimeSyncUEUE.visualizer.radioVisualizer[0] displayAntennaLobes false
par TimeSyncUEUE.visualizer.radioVisualizer[0] radioFilter "\"**\""
attr mutable ""
par TimeSyncUEUE.visualizer.radioVisualizer[0] radioModeImages "\"block/process_vs block/timer_vs block/wrx_vs block/wtx_vs block/wrxtx_vs block/cogwheel_vs\""
par TimeSyncUEUE.visualizer.radioVisualizer[0] receptionStateImages "\"- - misc/receiving misc/receiving\""
par TimeSyncUEUE.visualizer.radioVisualizer[0] transmissionStateImages "\"- - misc/transmitting\""
par TimeSyncUEUE.visualizer.radioVisualizer[0] width 16
par TimeSyncUEUE.visualizer.radioVisualizer[0] height 16
par TimeSyncUEUE.visualizer.radioVisualizer[0] placementHint "\"bottomRight\""
par TimeSyncUEUE.visualizer.radioVisualizer[0] placementPriority 0
par TimeSyncUEUE.visualizer.radioVisualizer[0] antennaLobeNormalize false
par TimeSyncUEUE.visualizer.radioVisualizer[0] antennaLobeRelativeLabels false
par TimeSyncUEUE.visualizer.radioVisualizer[0] antennaLobePlaneGlobal true
par TimeSyncUEUE.visualizer.radioVisualizer[0] antennaLobePlane "\"view\""
attr enum view,xy,xz,yz
par TimeSyncUEUE.visualizer.radioVisualizer[0] antennaLobeMode "\"logarithmic\""
attr enum logarithmic,linear
par TimeSyncUEUE.visualizer.radioVisualizer[0] antennaLobeLogarithmicBase 10
par TimeSyncUEUE.visualizer.radioVisualizer[0] antennaLobeLogarithmicScale 100
par TimeSyncUEUE.visualizer.radioVisualizer[0] antennaLobeRadius 100
par TimeSyncUEUE.visualizer.radioVisualizer[0] antennaLobeStep 10deg
attr unit deg
par TimeSyncUEUE.visualizer.radioVisualizer[0] antennaLobeOpacity 0.25
par TimeSyncUEUE.visualizer.radioVisualizer[0] antennaLobeLineSmooth true
par TimeSyncUEUE.visualizer.radioVisualizer[0] antennaLobeLineColor "\"black\""
par TimeSyncUEUE.visualizer.radioVisualizer[0] antennaLobeLineStyle "\"solid\""
par TimeSyncUEUE.visualizer.radioVisualizer[0] antennaLobeLineWidth 1
par TimeSyncUEUE.visualizer.radioVisualizer[0] antennaLobeFillColor "\"white\""
par TimeSyncUEUE.visualizer.radioVisualizer[0] zIndex 10
par TimeSyncUEUE.visualizer.physicalLinkVisualizer[0] typename "\"inet.visualizer.canvas.physicallayer.PhysicalLinkCanvasVisualizer\""
par TimeSyncUEUE.visualizer.physicalLinkVisualizer[0] visualizationTargetModule "\"^.^\""
par TimeSyncUEUE.visualizer.physicalLinkVisualizer[0] visualizationSubjectModule "\"^.^\""
par TimeSyncUEUE.visualizer.physicalLinkVisualizer[0] tags "\"\""
par TimeSyncUEUE.visualizer.physicalLinkVisualizer[0] displayLinks false
par TimeSyncUEUE.visualizer.physicalLinkVisualizer[0] activityLevel "\"service\""
attr enum service,peer,protocol
par TimeSyncUEUE.visualizer.physicalLinkVisualizer[0] nodeFilter "\"*\""
attr mutable ""
par TimeSyncUEUE.visualizer.physicalLinkVisualizer[0] interfaceFilter "\"*\""
attr mutable ""
par TimeSyncUEUE.visualizer.physicalLinkVisualizer[0] packetFilter "(omnetpp::cValueHolder)holder: \"*\""
attr mutable ""
par TimeSyncUEUE.visualizer.physicalLinkVisualizer[0] lineColor "\"olive\""
par TimeSyncUEUE.visualizer.physicalLinkVisualizer[0] lineStyle "\"dotted\""
par TimeSyncUEUE.visualizer.physicalLinkVisualizer[0] lineWidth 3
par TimeSyncUEUE.visualizer.physicalLinkVisualizer[0] lineShift 16
par TimeSyncUEUE.visualizer.physicalLinkVisualizer[0] lineShiftMode "\"normal\""
par TimeSyncUEUE.visualizer.physicalLinkVisualizer[0] lineContactSpacing 3
par TimeSyncUEUE.visualizer.physicalLinkVisualizer[0] lineContactMode "\"rectangular\""
attr enum circular,rectangular
par TimeSyncUEUE.visualizer.physicalLinkVisualizer[0] labelFormat "\"%n\""
par TimeSyncUEUE.visualizer.physicalLinkVisualizer[0] labelFont "\"<default>, 8px\""
par TimeSyncUEUE.visualizer.physicalLinkVisualizer[0] labelColor "\"olive\""
par TimeSyncUEUE.visualizer.physicalLinkVisualizer[0] fadeOutMode "\"realTime\""
attr enum realTime,animationTime,simulationTime
par TimeSyncUEUE.visualizer.physicalLinkVisualizer[0] fadeOutTime 1s
attr unit s
par TimeSyncUEUE.visualizer.physicalLinkVisualizer[0] fadeOutAnimationSpeed 0
par TimeSyncUEUE.visualizer.physicalLinkVisualizer[0] holdAnimationTime 0s
attr unit s
par TimeSyncUEUE.visualizer.physicalLinkVisualizer[0] zIndex 1
par TimeSyncUEUE.visualizer.interfaceTableVisualizer[0] typename "\"inet.visualizer.canvas.linklayer.InterfaceTableCanvasVisualizer\""
par TimeSyncUEUE.visualizer.interfaceTableVisualizer[0] visualizationTargetModule "\"^.^\""
par TimeSyncUEUE.visualizer.interfaceTableVisualizer[0] visualizationSubjectModule "\"^.^\""
par TimeSyncUEUE.visualizer.interfaceTableVisualizer[0] tags "\"\""
par TimeSyncUEUE.visualizer.interfaceTableVisualizer[0] networkNodeVisualizerModule "\"TimeSyncUEUE.visualizer.networkNodeVisualizer[0]\""
par TimeSyncUEUE.visualizer.interfaceTableVisualizer[0] displayInterfaceTables false
par TimeSyncUEUE.visualizer.interfaceTableVisualizer[0] displayWiredInterfacesAtConnections true
par TimeSyncUEUE.visualizer.interfaceTableVisualizer[0] displayBackground false
par TimeSyncUEUE.visualizer.interfaceTableVisualizer[0] nodeFilter "\"*\""
attr mutable ""
par TimeSyncUEUE.visualizer.interfaceTableVisualizer[0] interfaceFilter "\"not(lo*)\""
attr mutable ""
par TimeSyncUEUE.visualizer.interfaceTableVisualizer[0] format "\"%N %\\\\%a%/%l\""
attr mutable ""
par TimeSyncUEUE.visualizer.interfaceTableVisualizer[0] placementHint "\"top\""
par TimeSyncUEUE.visualizer.interfaceTableVisualizer[0] placementPriority 0
par TimeSyncUEUE.visualizer.interfaceTableVisualizer[0] font "\"<default>\""
par TimeSyncUEUE.visualizer.interfaceTableVisualizer[0] textColor "\"#005030\""
par TimeSyncUEUE.visualizer.interfaceTableVisualizer[0] backgroundColor "\"white\""
par TimeSyncUEUE.visualizer.interfaceTableVisualizer[0] opacity 1
par TimeSyncUEUE.visualizer.interfaceTableVisualizer[0] zIndex 10
par TimeSyncUEUE.visualizer.dataLinkVisualizer[0] typename "\"inet.visualizer.canvas.linklayer.DataLinkCanvasVisualizer\""
par TimeSyncUEUE.visualizer.dataLinkVisualizer[0] visualizationTargetModule "\"^.^\""
par TimeSyncUEUE.visualizer.dataLinkVisualizer[0] visualizationSubjectModule "\"^.^\""
par TimeSyncUEUE.visualizer.dataLinkVisualizer[0] tags "\"\""
par TimeSyncUEUE.visualizer.dataLinkVisualizer[0] displayLinks true
par TimeSyncUEUE.visualizer.dataLinkVisualizer[0] activityLevel "\"protocol\""
attr enum service,peer,protocol
par TimeSyncUEUE.visualizer.dataLinkVisualizer[0] nodeFilter "\"*\""
attr mutable ""
par TimeSyncUEUE.visualizer.dataLinkVisualizer[0] interfaceFilter "\"*\""
attr mutable ""
par TimeSyncUEUE.visualizer.dataLinkVisualizer[0] packetFilter "(omnetpp::cValueHolder)holder: \"GptpSync\""
attr mutable ""
par TimeSyncUEUE.visualizer.dataLinkVisualizer[0] lineColor "\"blue2\""
par TimeSyncUEUE.visualizer.dataLinkVisualizer[0] lineStyle "\"solid\""
par TimeSyncUEUE.visualizer.dataLinkVisualizer[0] lineWidth 3
par TimeSyncUEUE.visualizer.dataLinkVisualizer[0] lineShift 16
par TimeSyncUEUE.visualizer.dataLinkVisualizer[0] lineShiftMode "\"normal\""
par TimeSyncUEUE.visualizer.dataLinkVisualizer[0] lineContactSpacing 3
par TimeSyncUEUE.visualizer.dataLinkVisualizer[0] lineContactMode "\"rectangular\""
attr enum circular,rectangular
par TimeSyncUEUE.visualizer.dataLinkVisualizer[0] labelFormat "\"%n\""
par TimeSyncUEUE.visualizer.dataLinkVisualizer[0] labelFont "\"<default>, 8px\""
par TimeSyncUEUE.visualizer.dataLinkVisualizer[0] labelColor "\"darkcyan\""
par TimeSyncUEUE.visualizer.dataLinkVisualizer[0] fadeOutMode "\"realTime\""
attr enum realTime,animationTime,simulationTime
par TimeSyncUEUE.visualizer.dataLinkVisualizer[0] fadeOutTime 1s
attr unit s
par TimeSyncUEUE.visualizer.dataLinkVisualizer[0] fadeOutAnimationSpeed 0
par TimeSyncUEUE.visualizer.dataLinkVisualizer[0] holdAnimationTime 0s
attr unit s
par TimeSyncUEUE.visualizer.dataLinkVisualizer[0] zIndex 2
par TimeSyncUEUE.visualizer.linkBreakVisualizer[0] typename "\"inet.visualizer.canvas.linklayer.LinkBreakCanvasVisualizer\""
par TimeSyncUEUE.visualizer.linkBreakVisualizer[0] visualizationTargetModule "\"^.^\""
par TimeSyncUEUE.visualizer.linkBreakVisualizer[0] visualizationSubjectModule "\"^.^\""
par TimeSyncUEUE.visualizer.linkBreakVisualizer[0] tags "\"\""
par TimeSyncUEUE.visualizer.linkBreakVisualizer[0] displayLinkBreaks false
par TimeSyncUEUE.visualizer.linkBreakVisualizer[0] nodeFilter "\"*\""
attr mutable ""
par TimeSyncUEUE.visualizer.linkBreakVisualizer[0] interfaceFilter "\"*\""
attr mutable ""
par TimeSyncUEUE.visualizer.linkBreakVisualizer[0] packetFilter "(omnetpp::cValueHolder)holder: \"*\""
attr mutable ""
par TimeSyncUEUE.visualizer.linkBreakVisualizer[0] icon "\"status/stop\""
par TimeSyncUEUE.visualizer.linkBreakVisualizer[0] iconTintAmount 0
par TimeSyncUEUE.visualizer.linkBreakVisualizer[0] iconTintColor "\"\""
par TimeSyncUEUE.visualizer.linkBreakVisualizer[0] fadeOutMode "\"realTime\""
attr enum realTime,animationTime,simulationTime
par TimeSyncUEUE.visualizer.linkBreakVisualizer[0] fadeOutTime 1s
attr unit s
par TimeSyncUEUE.visualizer.linkBreakVisualizer[0] fadeOutAnimationSpeed 0
par TimeSyncUEUE.visualizer.linkBreakVisualizer[0] zIndex 2
par TimeSyncUEUE.visualizer.ieee80211Visualizer[0] typename "\"inet.visualizer.canvas.linklayer.Ieee80211CanvasVisualizer\""
par TimeSyncUEUE.visualizer.ieee80211Visualizer[0] visualizationTargetModule "\"^.^\""
par TimeSyncUEUE.visualizer.ieee80211Visualizer[0] visualizationSubjectModule "\"^.^\""
par TimeSyncUEUE.visualizer.ieee80211Visualizer[0] tags "\"\""
par TimeSyncUEUE.visualizer.ieee80211Visualizer[0] networkNodeVisualizerModule "\"TimeSyncUEUE.visualizer.networkNodeVisualizer[0]\""
par TimeSyncUEUE.visualizer.ieee80211Visualizer[0] displayAssociations false
par TimeSyncUEUE.visualizer.ieee80211Visualizer[0] nodeFilter "\"*\""
attr mutable ""
par TimeSyncUEUE.visualizer.ieee80211Visualizer[0] interfaceFilter "\"*\""
attr mutable ""
par TimeSyncUEUE.visualizer.ieee80211Visualizer[0] minPower -85dBm
attr unit dBm
par TimeSyncUEUE.visualizer.ieee80211Visualizer[0] maxPower -50dBm
attr unit dBm
par TimeSyncUEUE.visualizer.ieee80211Visualizer[0] icons "\"misc/signal_power_0 misc/signal_power_1 misc/signal_power_2 misc/signal_power_3\""
par TimeSyncUEUE.visualizer.ieee80211Visualizer[0] iconColor "\"dark\""
attr enum light,dark
par TimeSyncUEUE.visualizer.ieee80211Visualizer[0] labelFont "\"<default>\""
par TimeSyncUEUE.visualizer.ieee80211Visualizer[0] labelColor "\"black\""
par TimeSyncUEUE.visualizer.ieee80211Visualizer[0] placementHint "\"top\""
par TimeSyncUEUE.visualizer.ieee80211Visualizer[0] placementPriority 0
par TimeSyncUEUE.visualizer.ieee80211Visualizer[0] zIndex 2
par TimeSyncUEUE.visualizer.networkRouteVisualizer[0] typename "\"inet.visualizer.canvas.networklayer.NetworkRouteCanvasVisualizer\""
par TimeSyncUEUE.visualizer.networkRouteVisualizer[0] visualizationTargetModule "\"^.^\""
par TimeSyncUEUE.visualizer.networkRouteVisualizer[0] visualizationSubjectModule "\"^.^\""
par TimeSyncUEUE.visualizer.networkRouteVisualizer[0] tags "\"\""
par TimeSyncUEUE.visualizer.networkRouteVisualizer[0] displayRoutes false
par TimeSyncUEUE.visualizer.networkRouteVisualizer[0] startPathSignal "\"packetReceivedFromUpper\""
par TimeSyncUEUE.visualizer.networkRouteVisualizer[0] extendPathSignal "\"packetReceivedFromLower\""
par TimeSyncUEUE.visualizer.networkRouteVisualizer[0] endPathSignal "\"packetSentToUpper\""
par TimeSyncUEUE.visualizer.networkRouteVisualizer[0] nodeFilter "\"*\""
attr mutable ""
par TimeSyncUEUE.visualizer.networkRouteVisualizer[0] packetFilter "(omnetpp::cValueHolder)holder: \"*\""
attr mutable ""
par TimeSyncUEUE.visualizer.networkRouteVisualizer[0] lineColor "\"dark\""
attr enum light,dark
par TimeSyncUEUE.visualizer.networkRouteVisualizer[0] lineStyle "\"solid\""
par TimeSyncUEUE.visualizer.networkRouteVisualizer[0] lineWidth 3
par TimeSyncUEUE.visualizer.networkRouteVisualizer[0] lineSmooth false
par TimeSyncUEUE.visualizer.networkRouteVisualizer[0] lineShift 16
par TimeSyncUEUE.visualizer.networkRouteVisualizer[0] lineShiftMode "\"normal\""
par TimeSyncUEUE.visualizer.networkRouteVisualizer[0] lineContactSpacing 3
par TimeSyncUEUE.visualizer.networkRouteVisualizer[0] lineContactMode "\"rectangular\""
attr enum circular,rectangular
par TimeSyncUEUE.visualizer.networkRouteVisualizer[0] labelFormat "\"%n\""
par TimeSyncUEUE.visualizer.networkRouteVisualizer[0] labelFont "\"<default>, 8px\""
par TimeSyncUEUE.visualizer.networkRouteVisualizer[0] labelColor "\"\""
par TimeSyncUEUE.visualizer.networkRouteVisualizer[0] fadeOutMode "\"realTime\""
attr enum realTime,animationTime,simulationTime
par TimeSyncUEUE.visualizer.networkRouteVisualizer[0] fadeOutTime 1s
attr unit s
par TimeSyncUEUE.visualizer.networkRouteVisualizer[0] fadeOutAnimationSpeed 0
par TimeSyncUEUE.visualizer.networkRouteVisualizer[0] zIndex 3
par TimeSyncUEUE.visualizer.routingTableVisualizer[0] typename "\"inet.visualizer.canvas.networklayer.RoutingTableCanvasVisualizer\""
par TimeSyncUEUE.visualizer.routingTableVisualizer[0] visualizationTargetModule "\"^.^\""
par TimeSyncUEUE.visualizer.routingTableVisualizer[0] visualizationSubjectModule "\"^.^\""
par TimeSyncUEUE.visualizer.routingTableVisualizer[0] tags "\"\""
par TimeSyncUEUE.visualizer.routingTableVisualizer[0] displayRoutingTables false
par TimeSyncUEUE.visualizer.routingTableVisualizer[0] displayRoutesIndividually true
par TimeSyncUEUE.visualizer.routingTableVisualizer[0] displayLabels true
par TimeSyncUEUE.visualizer.routingTableVisualizer[0] destinationFilter "\"*\""
attr mutable ""
par TimeSyncUEUE.visualizer.routingTableVisualizer[0] nodeFilter "\"*\""
attr mutable ""
par TimeSyncUEUE.visualizer.routingTableVisualizer[0] lineColor "\"black\""
par TimeSyncUEUE.visualizer.routingTableVisualizer[0] lineStyle "\"solid\""
par TimeSyncUEUE.visualizer.routingTableVisualizer[0] lineWidth 2
par TimeSyncUEUE.visualizer.routingTableVisualizer[0] lineShift 16
par TimeSyncUEUE.visualizer.routingTableVisualizer[0] lineShiftMode "\"normal\""
par TimeSyncUEUE.visualizer.routingTableVisualizer[0] lineContactSpacing 3
par TimeSyncUEUE.visualizer.routingTableVisualizer[0] lineContactMode "\"rectangular\""
attr enum circular,rectangular
par TimeSyncUEUE.visualizer.routingTableVisualizer[0] labelFormat "\"%d/%m -> %g (%n)\""
attr mutable ""
par TimeSyncUEUE.visualizer.routingTableVisualizer[0] labelFont "\"<default>, 8px\""
par TimeSyncUEUE.visualizer.routingTableVisualizer[0] labelColor "\"black\""
par TimeSyncUEUE.visualizer.routingTableVisualizer[0] zIndex 0
par TimeSyncUEUE.visualizer.transportRouteVisualizer[0] typename "\"inet.visualizer.canvas.transportlayer.TransportRouteCanvasVisualizer\""
par TimeSyncUEUE.visualizer.transportRouteVisualizer[0] visualizationTargetModule "\"^.^\""
par TimeSyncUEUE.visualizer.transportRouteVisualizer[0] visualizationSubjectModule "\"^.^\""
par TimeSyncUEUE.visualizer.transportRouteVisualizer[0] tags "\"\""
par TimeSyncUEUE.visualizer.transportRouteVisualizer[0] displayRoutes false
par TimeSyncUEUE.visualizer.transportRouteVisualizer[0] startPathSignal "\"packetReceivedFromUpper\""
par TimeSyncUEUE.visualizer.transportRouteVisualizer[0] extendPathSignal "\"packetReceivedFromLower\""
par TimeSyncUEUE.visualizer.transportRouteVisualizer[0] endPathSignal "\"packetSentToUpper\""
par TimeSyncUEUE.visualizer.transportRouteVisualizer[0] nodeFilter "\"*\""
attr mutable ""
par TimeSyncUEUE.visualizer.transportRouteVisualizer[0] packetFilter "(omnetpp::cValueHolder)holder: \"*\""
attr mutable ""
par TimeSyncUEUE.visualizer.transportRouteVisualizer[0] lineColor "\"dark\""
attr enum light,dark
par TimeSyncUEUE.visualizer.transportRouteVisualizer[0] lineStyle "\"solid\""
par TimeSyncUEUE.visualizer.transportRouteVisualizer[0] lineWidth 3
par TimeSyncUEUE.visualizer.transportRouteVisualizer[0] lineSmooth false
par TimeSyncUEUE.visualizer.transportRouteVisualizer[0] lineShift 16
par TimeSyncUEUE.visualizer.transportRouteVisualizer[0] lineShiftMode "\"normal\""
par TimeSyncUEUE.visualizer.transportRouteVisualizer[0] lineContactSpacing 3
par TimeSyncUEUE.visualizer.transportRouteVisualizer[0] lineContactMode "\"rectangular\""
attr enum circular,rectangular
par TimeSyncUEUE.visualizer.transportRouteVisualizer[0] labelFormat "\"%n\""
par TimeSyncUEUE.visualizer.transportRouteVisualizer[0] labelFont "\"<default>, 8px\""
par TimeSyncUEUE.visualizer.transportRouteVisualizer[0] labelColor "\"\""
par TimeSyncUEUE.visualizer.transportRouteVisualizer[0] fadeOutMode "\"realTime\""
attr enum realTime,animationTime,simulationTime
par TimeSyncUEUE.visualizer.transportRouteVisualizer[0] fadeOutTime 1s
attr unit s
par TimeSyncUEUE.visualizer.transportRouteVisualizer[0] fadeOutAnimationSpeed 0
par TimeSyncUEUE.visualizer.transportRouteVisualizer[0] zIndex 4
par TimeSyncUEUE.visualizer.transportConnectionVisualizer[0] typename "\"inet.visualizer.canvas.transportlayer.TransportConnectionCanvasVisualizer\""
par TimeSyncUEUE.visualizer.transportConnectionVisualizer[0] visualizationTargetModule "\"^.^\""
par TimeSyncUEUE.visualizer.transportConnectionVisualizer[0] visualizationSubjectModule "\"^.^\""
par TimeSyncUEUE.visualizer.transportConnectionVisualizer[0] tags "\"\""
par TimeSyncUEUE.visualizer.transportConnectionVisualizer[0] networkNodeVisualizerModule "\"TimeSyncUEUE.visualizer.networkNodeVisualizer[0]\""
par TimeSyncUEUE.visualizer.transportConnectionVisualizer[0] displayTransportConnections false
par TimeSyncUEUE.visualizer.transportConnectionVisualizer[0] sourceNodeFilter "\"*\""
attr mutable ""
par TimeSyncUEUE.visualizer.transportConnectionVisualizer[0] sourcePortFilter "\"*\""
attr mutable ""
par TimeSyncUEUE.visualizer.transportConnectionVisualizer[0] destinationNodeFilter "\"*\""
attr mutable ""
par TimeSyncUEUE.visualizer.transportConnectionVisualizer[0] destinationPortFilter "\"*\""
attr mutable ""
par TimeSyncUEUE.visualizer.transportConnectionVisualizer[0] icon "\"misc/marker_s\""
par TimeSyncUEUE.visualizer.transportConnectionVisualizer[0] iconColor "\"dark\""
attr enum light,dark
par TimeSyncUEUE.visualizer.transportConnectionVisualizer[0] labelFont "\"<default>\""
par TimeSyncUEUE.visualizer.transportConnectionVisualizer[0] labelColor "\"black\""
par TimeSyncUEUE.visualizer.transportConnectionVisualizer[0] placementHint "\"top\""
par TimeSyncUEUE.visualizer.transportConnectionVisualizer[0] placementPriority 0
par TimeSyncUEUE.visualizer.transportConnectionVisualizer[0] zIndex 4
par TimeSyncUEUE.visualizer.failureProtectionConfigurationVisualizer[0] typename "\"inet.visualizer.canvas.configurator.FailureProtectionConfigurationCanvasVisualizer\""
par TimeSyncUEUE.visualizer.failureProtectionConfigurationVisualizer[0] visualizationTargetModule "\"^.^\""
par TimeSyncUEUE.visualizer.failureProtectionConfigurationVisualizer[0] visualizationSubjectModule "\"^.^\""
par TimeSyncUEUE.visualizer.failureProtectionConfigurationVisualizer[0] tags "\"\""
par TimeSyncUEUE.visualizer.failureProtectionConfigurationVisualizer[0] displayTrees false
par TimeSyncUEUE.visualizer.failureProtectionConfigurationVisualizer[0] lineColor "\"dark\""
attr enum light,dark
par TimeSyncUEUE.visualizer.failureProtectionConfigurationVisualizer[0] lineStyle "\"solid\""
par TimeSyncUEUE.visualizer.failureProtectionConfigurationVisualizer[0] lineWidth 3
par TimeSyncUEUE.visualizer.failureProtectionConfigurationVisualizer[0] lineSmooth false
par TimeSyncUEUE.visualizer.failureProtectionConfigurationVisualizer[0] lineShift 16
par TimeSyncUEUE.visualizer.failureProtectionConfigurationVisualizer[0] lineShiftMode "\"normal\""
par TimeSyncUEUE.visualizer.failureProtectionConfigurationVisualizer[0] lineContactSpacing 3
par TimeSyncUEUE.visualizer.failureProtectionConfigurationVisualizer[0] lineContactMode "\"rectangular\""
attr enum circular,rectangular
par TimeSyncUEUE.visualizer.failureProtectionConfigurationVisualizer[0] failureProtectionConfiguratorModule "\"failureProtectionConfigurator\""
par TimeSyncUEUE.visualizer.failureProtectionConfigurationVisualizer[0] streamFilter "\"*\""
par TimeSyncUEUE.visualizer.failureProtectionConfigurationVisualizer[0] zIndex 3
par TimeSyncUEUE.visualizer.streamRedundancyConfigurationVisualizer[0] typename "\"inet.visualizer.canvas.configurator.StreamRedundancyConfigurationCanvasVisualizer\""
par TimeSyncUEUE.visualizer.streamRedundancyConfigurationVisualizer[0] visualizationTargetModule "\"^.^\""
par TimeSyncUEUE.visualizer.streamRedundancyConfigurationVisualizer[0] visualizationSubjectModule "\"^.^\""
par TimeSyncUEUE.visualizer.streamRedundancyConfigurationVisualizer[0] tags "\"\""
par TimeSyncUEUE.visualizer.streamRedundancyConfigurationVisualizer[0] displayTrees false
par TimeSyncUEUE.visualizer.streamRedundancyConfigurationVisualizer[0] lineColor "\"dark\""
attr enum light,dark
par TimeSyncUEUE.visualizer.streamRedundancyConfigurationVisualizer[0] lineStyle "\"solid\""
par TimeSyncUEUE.visualizer.streamRedundancyConfigurationVisualizer[0] lineWidth 3
par TimeSyncUEUE.visualizer.streamRedundancyConfigurationVisualizer[0] lineSmooth false
par TimeSyncUEUE.visualizer.streamRedundancyConfigurationVisualizer[0] lineShift 16
par TimeSyncUEUE.visualizer.streamRedundancyConfigurationVisualizer[0] lineShiftMode "\"normal\""
par TimeSyncUEUE.visualizer.streamRedundancyConfigurationVisualizer[0] lineContactSpacing 3
par TimeSyncUEUE.visualizer.streamRedundancyConfigurationVisualizer[0] lineContactMode "\"rectangular\""
attr enum circular,rectangular
par TimeSyncUEUE.visualizer.streamRedundancyConfigurationVisualizer[0] streamRedundancyConfiguratorModule "\"streamRedundancyConfigurator\""
par TimeSyncUEUE.visualizer.streamRedundancyConfigurationVisualizer[0] streamFilter "\"*\""
par TimeSyncUEUE.visualizer.streamRedundancyConfigurationVisualizer[0] zIndex 3
par TimeSyncUEUE.visualizer typename "\"inet.visualizer.canvas.integrated.IntegratedMultiCanvasVisualizer\""
par TimeSyncUEUE.visualizer numSceneVisualizers 1
par TimeSyncUEUE.visualizer numPhysicalEnvironmentVisualizers 1
par TimeSyncUEUE.visualizer numNetworkNodeVisualizers 1
par TimeSyncUEUE.visualizer numNetworkConnectionVisualizers 1
par TimeSyncUEUE.visualizer numMobilityVisualizers 1
par TimeSyncUEUE.visualizer numStatisticVisualizers 1
par TimeSyncUEUE.visualizer numInfoVisualizers 1
par TimeSyncUEUE.visualizer numEnergyStorageVisualizers 1
par TimeSyncUEUE.visualizer numMediumVisualizers 1
par TimeSyncUEUE.visualizer numObstacleLossVisualizers 1
par TimeSyncUEUE.visualizer numPacketDropVisualizers 1
par TimeSyncUEUE.visualizer numQueueVisualizers 1
par TimeSyncUEUE.visualizer numGateScheduleVisualizers 1
par TimeSyncUEUE.visualizer numRadioVisualizers 1
par TimeSyncUEUE.visualizer numPhysicalLinkVisualizers 1
par TimeSyncUEUE.visualizer numInterfaceTableVisualizers 1
par TimeSyncUEUE.visualizer numDataLinkVisualizers 1
par TimeSyncUEUE.visualizer numLinkBreakVisualizers 1
par TimeSyncUEUE.visualizer numIeee80211Visualizers 1
par TimeSyncUEUE.visualizer numNetworkRouteVisualizers 1
par TimeSyncUEUE.visualizer numRoutingTableVisualizers 1
par TimeSyncUEUE.visualizer numTransportRouteVisualizers 1
par TimeSyncUEUE.visualizer numTransportConnectionVisualizers 1
par TimeSyncUEUE.visualizer numFailureProtectionConfigurationVisualizers 1
par TimeSyncUEUE.visualizer numStreamRedundancyConfigurationVisualizers 1
par TimeSyncUEUE.configurator typename "\"inet.networklayer.configurator.ipv4.Ipv4NetworkConfigurator\""
par TimeSyncUEUE.configurator minLinkWeight 0.001
par TimeSyncUEUE.configurator configureIsolatedNetworksSeparatly false
par TimeSyncUEUE.configurator config "<config>...</config> at content:1"
par TimeSyncUEUE.configurator assignAddresses true
par TimeSyncUEUE.configurator assignUniqueAddresses true
par TimeSyncUEUE.configurator assignDisjunctSubnetAddresses true
par TimeSyncUEUE.configurator addStaticRoutes true
par TimeSyncUEUE.configurator addDefaultRoutes true
par TimeSyncUEUE.configurator addSubnetRoutes true
par TimeSyncUEUE.configurator addDirectRoutes true
par TimeSyncUEUE.configurator optimizeRoutes true
par TimeSyncUEUE.configurator dumpTopology false
par TimeSyncUEUE.configurator dumpLinks false
par TimeSyncUEUE.configurator dumpAddresses false
par TimeSyncUEUE.configurator dumpRoutes false
par TimeSyncUEUE.configurator dumpConfig "\"\""
par TimeSyncUEUE.macForwardingTableConfigurator typename "\"inet.linklayer.configurator.MacForwardingTableConfigurator\""
par TimeSyncUEUE.histogramContainer typename "\"src.distribution.histogram.HistogramContainer\""
par TimeSyncUEUE.histogramContainer histograms "{gPTP: \"../../../deterministic6g_data/PD-Wireless-5G-1/gPTP_cut.xml\", s1: \"../../../deterministic6g_data/PD-Wireless-5G-1/s1-UL_wall.xml\", s10: \"../../../deterministic6g_data/PD-Wireless-5G-1/s10-DL_wall.xml\", s19: \"../../../deterministic6g_data/PD-Wireless-5G-1/s19-DL_wall.xml\", s20: \"../../../deterministic6g_data/PD-Wireless-5G-1/s20-UL_wall.xml\", s24: \"../../../deterministic6g_data/PD-Wireless-5G-1/s24-UL_wall.xml\", s25: \"../../../deterministic6g_data/PD-Wireless-5G-1/s25-DL_wall.xml\", s26: \"../../../deterministic6g_data/PD-Wireless-5G-1/s26-UL_wall.xml\", s3: \"../../../deterministic6g_data/PD-Wireless-5G-1/s3-UL_wall.xml\", s4: \"../../../deterministic6g_data/PD-Wireless-5G-1/s4-UL_wall.xml\", s6: \"../../../deterministic6g_data/PD-Wireless-5G-1/s6-UL_wall.xml\", s7: \"../../../deterministic6g_data/PD-Wireless-5G-1/s7-UL_wall.xml\", s8: \"../../../deterministic6g_data/PD-Wireless-5G-1/s8-UL_wall.xml\", s9: \"../../../deterministic6g_data/PD-Wireless-5G-1/s9-UL_wall.xml\"}"
par TimeSyncUEUE.SwitchS1.eth[0].phys$o.channel typename "\"ned.IdealChannel\""
par TimeSyncUEUE.SwitchS1.ethg$i[0].channel typename "\"ned.IdealChannel\""
par TimeSyncUEUE.SwitchS1.eth[1].phys$o.channel typename "\"ned.IdealChannel\""
par TimeSyncUEUE.SwitchS1.ethg$i[1].channel typename "\"ned.IdealChannel\""
par TimeSyncUEUE.SwitchS1.eth[2].phys$o.channel typename "\"ned.IdealChannel\""
par TimeSyncUEUE.SwitchS1.ethg$i[2].channel typename "\"ned.IdealChannel\""
par TimeSyncUEUE.SwitchS1.eth[3].phys$o.channel typename "\"ned.IdealChannel\""
par TimeSyncUEUE.SwitchS1.ethg$i[3].channel typename "\"ned.IdealChannel\""
par TimeSyncUEUE.SwitchS1.eth[4].phys$o.channel typename "\"ned.IdealChannel\""
par TimeSyncUEUE.SwitchS1.ethg$i[4].channel typename "\"ned.IdealChannel\""
par TimeSyncUEUE.SwitchS1.macTable typename "\"inet.linklayer.ethernet.common.MacForwardingTable\""
par TimeSyncUEUE.SwitchS1.macTable agingTime 1200s
attr unit s
par TimeSyncUEUE.SwitchS1.macTable forwardingTable "[{address: \"0A-AA-00-00-00-07\", interface: \"eth2\"}, {address: \"0A-AA-00-00-00-08\", interface: \"eth3\"}, {address: \"0A-AA-00-00-00-09\", interface: \"eth4\"}, {address: \"0A-AA-00-00-00-0D\", interface: \"eth0\"}, {address: \"0A-AA-00-00-00-0E\", interface: \"eth0\"}, {address: \"0A-AA-00-00-00-12\", interface: \"eth0\"}, {address: \"0A-AA-00-00-00-13\", interface: \"eth0\"}, {address: \"0A-AA-00-00-00-16\", interface: \"eth0\"}, {address: \"01-00-5E-00-00-01\", interface: \"eth1\"}, {address: \"01-00-5E-00-00-01\", interface: \"eth2\"}, {address: \"01-00-5E-00-00-01\", interface: \"eth3\"}, {address: \"01-00-5E-00-00-01\", interface: \"eth4\"}, {address: \"01-00-5E-00-00-01\", interface: \"eth0\"}]"
attr mutable ""
par TimeSyncUEUE.SwitchS1.macTable forwardingTableFile "\"\""
par TimeSyncUEUE.SwitchS1.macTable interfaceTableModule "\"TimeSyncUEUE.SwitchS1.interfaceTable\""
par TimeSyncUEUE.SwitchS1.macTable displayStringTextFormat "\"addr: %a\\nvlan: %v\""
par TimeSyncUEUE.SwitchS1.interfaceTable typename "\"inet.networklayer.common.InterfaceTable\""
par TimeSyncUEUE.SwitchS1.interfaceTable displayAddresses false
par TimeSyncUEUE.SwitchS1.clock.oscillator typename "\"inet.clock.oscillator.ConstantDriftOscillator\""
par TimeSyncUEUE.SwitchS1.clock.oscillator displayStringTextFormat "\"%c (%n + %d)\""
par TimeSyncUEUE.SwitchS1.clock.oscillator nominalTickLength 0s
attr unit s
par TimeSyncUEUE.SwitchS1.clock.oscillator tickOffset 0s
attr unit s
par TimeSyncUEUE.SwitchS1.clock.oscillator driftRate 59.3932ppm
attr unit ppm
par TimeSyncUEUE.SwitchS1.clock typename "\"inet.clock.model.SettableClock\""
par TimeSyncUEUE.SwitchS1.clock displayStringTextFormat "\"diff: %d\""
par TimeSyncUEUE.SwitchS1.clock referenceClock "\"SwitchDN.clock\""
par TimeSyncUEUE.SwitchS1.clock emitClockTimeInterval 0s
attr unit s
par TimeSyncUEUE.SwitchS1.clock initialClockTime 0s
attr unit s
par TimeSyncUEUE.SwitchS1.clock roundingMode "\"up\""
attr enum down,up,closer,none
par TimeSyncUEUE.SwitchS1.clock defaultOverdueClockEventHandlingMode "\"execute\""
attr enum execute,skip,error
par TimeSyncUEUE.SwitchS1.gptp typename "\"inet.linklayer.ieee8021as.Gptp\""
par TimeSyncUEUE.SwitchS1.gptp clockModule "\"TimeSyncUEUE.SwitchS1.clock\""
par TimeSyncUEUE.SwitchS1.gptp interfaceTableModule "\"TimeSyncUEUE.SwitchS1.interfaceTable\""
par TimeSyncUEUE.SwitchS1.gptp gptpNodeType "\"BRIDGE_NODE\""
par TimeSyncUEUE.SwitchS1.gptp domainNumber 0
par TimeSyncUEUE.SwitchS1.gptp slavePort "\"eth0\""
par TimeSyncUEUE.SwitchS1.gptp masterPorts "[\"eth1\", \"eth2\", \"eth3\", \"eth4\"]"
par TimeSyncUEUE.SwitchS1.gptp correctionField 0s
attr unit s
par TimeSyncUEUE.SwitchS1.gptp syncInterval 0.125s
attr unit s
par TimeSyncUEUE.SwitchS1.gptp pdelayInterval 1s
attr unit s
par TimeSyncUEUE.SwitchS1.gptp syncInitialOffset 0.125s
attr unit s
par TimeSyncUEUE.SwitchS1.gptp pdelayInitialOffset 0s
attr unit s
par TimeSyncUEUE.SwitchS1.gptp pDelayReqProcessingTime 8e-06s
attr unit s
par TimeSyncUEUE.SwitchS1.gptp followUpInterval 7e-06s
attr unit s
par TimeSyncUEUE.SwitchS1.sc typename "\"inet.common.MessageDispatcher\""
par TimeSyncUEUE.SwitchS1.sc displayStringTextFormat "\"processed %p pk (%l)\""
par TimeSyncUEUE.SwitchS1.sc forwardServiceRegistration true
par TimeSyncUEUE.SwitchS1.sc forwardProtocolRegistration true
par TimeSyncUEUE.SwitchS1.cb typename "\"inet.common.MessageDispatcher\""
par TimeSyncUEUE.SwitchS1.cb displayStringTextFormat "\"processed %p pk (%l)\""
par TimeSyncUEUE.SwitchS1.cb forwardServiceRegistration true
par TimeSyncUEUE.SwitchS1.cb forwardProtocolRegistration true
par TimeSyncUEUE.SwitchS1.bridging.directionReverser.upperLayerIn.channel typename "\"ned.IdealChannel\""
par TimeSyncUEUE.SwitchS1.bridging.directionReverser.join.out.channel typename "\"ned.IdealChannel\""
par TimeSyncUEUE.SwitchS1.bridging.directionReverser.lowerLayerIn.channel typename "\"ned.IdealChannel\""
par TimeSyncUEUE.SwitchS1.bridging.directionReverser.fork.out[0].channel typename "\"ned.IdealChannel\""
par TimeSyncUEUE.SwitchS1.bridging.directionReverser.fork typename "\"inet.common.MessageDispatcher\""
par TimeSyncUEUE.SwitchS1.bridging.directionReverser.fork displayStringTextFormat "\"processed %p pk (%l)\""
par TimeSyncUEUE.SwitchS1.bridging.directionReverser.fork forwardServiceRegistration false
par TimeSyncUEUE.SwitchS1.bridging.directionReverser.fork forwardProtocolRegistration true
par TimeSyncUEUE.SwitchS1.bridging.directionReverser.reverser typename "\"inet.linklayer.ethernet.common.PacketDirectionReverser\""
par TimeSyncUEUE.SwitchS1.bridging.directionReverser.reverser displayStringTextFormat "\"processed %p pk (%l)\""
par TimeSyncUEUE.SwitchS1.bridging.directionReverser.reverser forwardVlan true
par TimeSyncUEUE.SwitchS1.bridging.directionReverser.reverser forwardPcp true
par TimeSyncUEUE.SwitchS1.bridging.directionReverser.reverser excludeEncapsulationProtocols []
scalar TimeSyncUEUE.SwitchS1.bridging.directionReverser.reverser outgoingPackets:count 43997
attr recordingmode count
attr source "merge(packetPushedOut, packetPulledOut)"
attr title "outgoing packets, count"
attr unit pk
scalar TimeSyncUEUE.SwitchS1.bridging.directionReverser.reverser outgoingPacketLengths:sum 80968528
attr interpolationmode none
attr recordingmode sum
attr source "packetLength(merge(packetPushedOut, packetPulledOut))"
attr title "outgoing packet lengths, sum"
attr unit b
statistic TimeSyncUEUE.SwitchS1.bridging.directionReverser.reverser outgoingPacketLengths:histogram
field count 43997
field mean 1840.3192944974
field stddev 2827.0130508981
field min 624
field max 11792
field sum 80968528
field sqrsum 500624099072
attr interpolationmode none
[...]
field sqrsum 0
attr interpolationmode none
attr recordingmode histogram
attr source packetDuration(transmissionEnded)
attr title "transmission time"
attr unit s
bin	-inf	0
bin	-0.5	0
bin	-0.48	0
bin	-0.46	0
bin	-0.44	0
bin	-0.42	0
bin	-0.4	0
bin	-0.38	0
bin	-0.36	0
bin	-0.34	0
bin	-0.32	0
bin	-0.3	0
bin	-0.28	0
bin	-0.26	0
bin	-0.24	0
bin	-0.22	0
bin	-0.2	0
bin	-0.18	0
bin	-0.16	0
bin	-0.14	0
bin	-0.12	0
bin	-0.1	0
bin	-0.08	0
bin	-0.06	0
bin	-0.04	0
bin	-0.02	0
bin	0	10397
bin	0.02	0
bin	0.04	0
bin	0.06	0
bin	0.08	0
bin	0.1	0
bin	0.12	0
bin	0.14	0
bin	0.16	0
bin	0.18	0
bin	0.2	0
bin	0.22	0
bin	0.24	0
bin	0.26	0
bin	0.28	0
bin	0.3	0
bin	0.32	0
bin	0.34	0
bin	0.36	0
bin	0.38	0
bin	0.4	0
bin	0.42	0
bin	0.44	0
bin	0.46	0
bin	0.48	0
bin	0.5	0
statistic TimeSyncUEUE.FGS.nwtt[0].tt[2].phyLayer.transmitter flowTransmissionTime:histogram
field count 0
field mean -nan
field stddev nan
field min nan
field max nan
field sum 0
field sqrsum 0
attr interpolationmode none
attr recordingmode histogram
attr source packetDuration(demuxFlow(transmissionEnded))
attr title "flow transmission time"
attr unit s
bin	-inf	0
bin	0	0
bin	1	0
par TimeSyncUEUE.FGS.nwtt[0].tt[2].phyLayer.phyHeaderChecker typename "\"inet.physicallayer.wired.ethernet.EthernetPhyHeaderChecker\""
par TimeSyncUEUE.FGS.nwtt[0].tt[2].phyLayer.phyHeaderChecker displayStringTextFormat "\"dropped %d/%p pk (%k/%l)\""
par TimeSyncUEUE.FGS.nwtt[0].tt[2].phyLayer.phyHeaderChecker backpressure false
scalar TimeSyncUEUE.FGS.nwtt[0].tt[2].phyLayer.phyHeaderChecker outgoingPackets:count 11999
attr recordingmode count
attr source "merge(packetPushedOut, packetPulledOut)"
attr title "outgoing packets, count"
attr unit pk
scalar TimeSyncUEUE.FGS.nwtt[0].tt[2].phyLayer.phyHeaderChecker outgoingPacketLengths:sum 9484032
attr interpolationmode none
attr recordingmode sum
attr source "packetLength(merge(packetPushedOut, packetPulledOut))"
attr title "outgoing packet lengths, sum"
attr unit b
statistic TimeSyncUEUE.FGS.nwtt[0].tt[2].phyLayer.phyHeaderChecker outgoingPacketLengths:histogram
field count 11999
field mean 790.40186682224
field stddev 44.803267053178
field min 768
field max 880
field sum 9484032
field sqrsum 7520280576
attr interpolationmode none
attr recordingmode histogram
attr source "packetLength(merge(packetPushedOut, packetPulledOut))"
attr title "outgoing packet lengths"
attr unit b
bin	-inf	0
bin	740	0
bin	742	0
bin	744	0
bin	746	0
bin	748	0
bin	750	0
bin	752	0
bin	754	0
bin	756	0
bin	758	0
bin	760	0
bin	762	0
bin	764	0
bin	766	0
bin	768	9599
bin	770	0
bin	772	0
bin	774	0
bin	776	0
bin	778	0
bin	780	0
bin	782	0
bin	784	0
bin	786	0
bin	788	0
bin	790	0
bin	792	0
bin	794	0
bin	796	0
bin	798	0
bin	800	0
bin	802	0
bin	804	0
bin	806	0
bin	808	0
bin	810	0
bin	812	0
bin	814	0
bin	816	0
bin	818	0
bin	820	0
bin	822	0
bin	824	0
bin	826	0
bin	828	0
bin	830	0
bin	832	0
bin	834	0
bin	836	0
bin	838	0
bin	840	0
bin	842	0
bin	844	0
bin	846	0
bin	848	0
bin	850	0
bin	852	0
bin	854	0
bin	856	0
bin	858	0
bin	860	0
bin	862	0
bin	864	0
bin	866	0
bin	868	0
bin	870	0
bin	872	0
bin	874	0
bin	876	0
bin	878	0
bin	880	2400
bin	882	0
bin	884	0
bin	886	0
bin	888	0
bin	890	0
bin	892	0
bin	894	0
bin	896	0
bin	898	0
bin	900	0
bin	902	0
bin	904	0
bin	906	0
bin	908	0
scalar TimeSyncUEUE.FGS.nwtt[0].tt[2].phyLayer.phyHeaderChecker flowOutgoingPacketLengths:sum 0
attr interpolationmode none
attr recordingmode sum
attr source "packetLength(demuxFlow(merge(packetPushedOut, packetPulledOut)))"
attr title "flow specific outgoing packet lengths, sum"
attr unit b
statistic TimeSyncUEUE.FGS.nwtt[0].tt[2].phyLayer.phyHeaderChecker flowOutgoingPacketLengths:histogram
field count 0
field mean -nan
field stddev nan
field min nan
field max nan
field sum 0
field sqrsum 0
attr interpolationmode none
attr recordingmode histogram
attr source "packetLength(demuxFlow(merge(packetPushedOut, packetPulledOut)))"
attr title "flow specific outgoing packet lengths"
attr unit b
bin	-inf	0
bin	0	0
bin	1	0
scalar TimeSyncUEUE.FGS.nwtt[0].tt[2].phyLayer.phyHeaderChecker incomingPackets:count 11999
attr recordingmode count
attr source "merge(packetPushedIn, packetPulledIn)"
attr title "incoming packets, count"
attr unit pk
scalar TimeSyncUEUE.FGS.nwtt[0].tt[2].phyLayer.phyHeaderChecker incomingPacketLengths:sum 10251968
attr interpolationmode none
attr recordingmode sum
attr source "packetLength(merge(packetPushedIn, packetPulledIn))"
attr title "incoming packet lengths, sum"
attr unit b
statistic TimeSyncUEUE.FGS.nwtt[0].tt[2].phyLayer.phyHeaderChecker incomingPacketLengths:histogram
field count 11999
field mean 854.40186682224
field stddev 44.803267053178
field min 832
field max 944
field sum 10251968
field sqrsum 8783384576
attr interpolationmode none
attr recordingmode histogram
attr source "packetLength(merge(packetPushedIn, packetPulledIn))"
attr title "incoming packet lengths"
attr unit b
bin	-inf	0
bin	804	0
bin	806	0
bin	808	0
bin	810	0
bin	812	0
bin	814	0
bin	816	0
bin	818	0
bin	820	0
bin	822	0
bin	824	0
bin	826	0
bin	828	0
bin	830	0
bin	832	9599
bin	834	0
bin	836	0
bin	838	0
bin	840	0
bin	842	0
bin	844	0
bin	846	0
bin	848	0
bin	850	0
bin	852	0
bin	854	0
bin	856	0
bin	858	0
bin	860	0
bin	862	0
bin	864	0
bin	866	0
bin	868	0
bin	870	0
bin	872	0
bin	874	0
bin	876	0
bin	878	0
bin	880	0
bin	882	0
bin	884	0
bin	886	0
bin	888	0
bin	890	0
bin	892	0
bin	894	0
bin	896	0
bin	898	0
bin	900	0
bin	902	0
bin	904	0
bin	906	0
bin	908	0
bin	910	0
bin	912	0
bin	914	0
bin	916	0
bin	918	0
bin	920	0
bin	922	0
bin	924	0
bin	926	0
bin	928	0
bin	930	0
bin	932	0
bin	934	0
bin	936	0
bin	938	0
bin	940	0
bin	942	0
bin	944	2400
bin	946	0
bin	948	0
bin	950	0
bin	952	0
bin	954	0
bin	956	0
bin	958	0
bin	960	0
bin	962	0
bin	964	0
bin	966	0
bin	968	0
bin	970	0
bin	972	0
scalar TimeSyncUEUE.FGS.nwtt[0].tt[2].phyLayer.phyHeaderChecker flowIncomingPacketLengths:sum 0
attr interpolationmode none
attr recordingmode sum
attr source "packetLength(demuxFlow(merge(packetPushedIn, packetPulledIn)))"
attr title "flow specific incoming packet lengths, sum"
attr unit b
statistic TimeSyncUEUE.FGS.nwtt[0].tt[2].phyLayer.phyHeaderChecker flowIncomingPacketLengths:histogram
field count 0
field mean -nan
field stddev nan
field min nan
field max nan
field sum 0
field sqrsum 0
attr interpolationmode none
attr recordingmode histogram
attr source "packetLength(demuxFlow(merge(packetPushedIn, packetPulledIn)))"
attr title "flow specific incoming packet lengths"
attr unit b
bin	-inf	0
bin	0	0
bin	1	0
scalar TimeSyncUEUE.FGS.nwtt[0].tt[2].phyLayer.phyHeaderChecker droppedPackets:count 0
attr recordingmode count
attr source packetDropped
attr title "dropped packets, count"
attr unit pk
scalar TimeSyncUEUE.FGS.nwtt[0].tt[2].phyLayer.phyHeaderChecker droppedPacketLengths:sum 0
attr interpolationmode none
attr recordingmode sum
attr source packetLength(packetDropped)
attr title "dropped packet lengths, sum"
attr unit b
statistic TimeSyncUEUE.FGS.nwtt[0].tt[2].phyLayer.phyHeaderChecker droppedPacketLengths:histogram
field count 0
field mean -nan
field stddev nan
field min nan
field max nan
field sum 0
field sqrsum 0
attr interpolationmode none
attr recordingmode histogram
attr source packetLength(packetDropped)
attr title "dropped packet lengths"
attr unit b
bin	-inf	0
bin	0	0
bin	1	0
scalar TimeSyncUEUE.FGS.nwtt[0].tt[2].phyLayer.phyHeaderChecker flowDroppedPacketLengths:sum 0
attr interpolationmode none
attr recordingmode sum
attr source packetLength(demuxFlow(packetDropped))
attr title "flow specific dropped packet lengths, sum"
attr unit b
statistic TimeSyncUEUE.FGS.nwtt[0].tt[2].phyLayer.phyHeaderChecker flowDroppedPacketLengths:histogram
field count 0
field mean -nan
field stddev nan
field min nan
field max nan
field sum 0
field sqrsum 0
attr interpolationmode none
attr recordingmode histogram
attr source packetLength(demuxFlow(packetDropped))
attr title "flow specific dropped packet lengths"
attr unit b
bin	-inf	0
bin	0	0
bin	1	0
par TimeSyncUEUE.FGS.nwtt[0].tt[2].phyLayer.inboundEmitter typename "\"inet.protocolelement.common.PacketEmitter\""
par TimeSyncUEUE.FGS.nwtt[0].tt[2].phyLayer.inboundEmitter displayStringTextFormat "\"processed %p pk (%l)\""
par TimeSyncUEUE.FGS.nwtt[0].tt[2].phyLayer.inboundEmitter packetFilter "(omnetpp::cValueHolder)holder: \"*\""
par TimeSyncUEUE.FGS.nwtt[0].tt[2].phyLayer.inboundEmitter direction "\"inbound\""
attr enum undefined,inbound,outbound
par TimeSyncUEUE.FGS.nwtt[0].tt[2].phyLayer.inboundEmitter signalName "\"packetReceivedFromLower\""
scalar TimeSyncUEUE.FGS.nwtt[0].tt[2].phyLayer.inboundEmitter outgoingPackets:count 11999
attr recordingmode count
attr source "merge(packetPushedOut, packetPulledOut)"
attr title "outgoing packets, count"
attr unit pk
scalar TimeSyncUEUE.FGS.nwtt[0].tt[2].phyLayer.inboundEmitter outgoingPacketLengths:sum 10251968
attr interpolationmode none
attr recordingmode sum
attr source "packetLength(merge(packetPushedOut, packetPulledOut))"
attr title "outgoing packet lengths, sum"
attr unit b
statistic TimeSyncUEUE.FGS.nwtt[0].tt[2].phyLayer.inboundEmitter outgoingPacketLengths:histogram
field count 11999
field mean 854.40186682224
field stddev 44.803267053178
field min 832
field max 944
field sum 10251968
field sqrsum 8783384576
attr interpolationmode none
attr recordingmode histogram
attr source "packetLength(merge(packetPushedOut, packetPulledOut))"
attr title "outgoing packet lengths"
attr unit b
bin	-inf	0
bin	804	0
bin	806	0
bin	808	0
bin	810	0
bin	812	0
bin	814	0
bin	816	0
bin	818	0
bin	820	0
bin	822	0
bin	824	0
bin	826	0
bin	828	0
bin	830	0
bin	832	9599
bin	834	0
bin	836	0
bin	838	0
bin	840	0
bin	842	0
bin	844	0
bin	846	0
bin	848	0
bin	850	0
bin	852	0
bin	854	0
bin	856	0
bin	858	0
bin	860	0
bin	862	0
bin	864	0
bin	866	0
bin	868	0
bin	870	0
bin	872	0
bin	874	0
bin	876	0
bin	878	0
bin	880	0
bin	882	0
bin	884	0
bin	886	0
bin	888	0
bin	890	0
bin	892	0
bin	894	0
bin	896	0
bin	898	0
bin	900	0
bin	902	0
bin	904	0
bin	906	0
bin	908	0
bin	910	0
bin	912	0
bin	914	0
bin	916	0
bin	918	0
bin	920	0
bin	922	0
bin	924	0
bin	926	0
bin	928	0
bin	930	0
bin	932	0
bin	934	0
bin	936	0
bin	938	0
bin	940	0
bin	942	0
bin	944	2400
bin	946	0
bin	948	0
bin	950	0
bin	952	0
bin	954	0
bin	956	0
bin	958	0
bin	960	0
bin	962	0
bin	964	0
bin	966	0
bin	968	0
bin	970	0
bin	972	0
scalar TimeSyncUEUE.FGS.nwtt[0].tt[2].phyLayer.inboundEmitter flowOutgoingPacketLengths:sum 0
attr interpolationmode none
attr recordingmode sum
attr source "packetLength(demuxFlow(merge(packetPushedOut, packetPulledOut)))"
attr title "flow specific outgoing packet lengths, sum"
attr unit b
statistic TimeSyncUEUE.FGS.nwtt[0].tt[2].phyLayer.inboundEmitter flowOutgoingPacketLengths:histogram
field count 0
field mean -nan
field stddev nan
field min nan
field max nan
field sum 0
field sqrsum 0
attr interpolationmode none
attr recordingmode histogram
attr source "packetLength(demuxFlow(merge(packetPushedOut, packetPulledOut)))"
attr title "flow specific outgoing packet lengths"
attr unit b
bin	-inf	0
bin	0	0
bin	1	0
scalar TimeSyncUEUE.FGS.nwtt[0].tt[2].phyLayer.inboundEmitter incomingPackets:count 11999
attr recordingmode count
attr source "merge(packetPushedIn, packetPulledIn)"
attr title "incoming packets, count"
attr unit pk
scalar TimeSyncUEUE.FGS.nwtt[0].tt[2].phyLayer.inboundEmitter incomingPacketLengths:sum 10251968
attr interpolationmode none
attr recordingmode sum
attr source "packetLength(merge(packetPushedIn, packetPulledIn))"
attr title "incoming packet lengths, sum"
attr unit b
statistic TimeSyncUEUE.FGS.nwtt[0].tt[2].phyLayer.inboundEmitter incomingPacketLengths:histogram
field count 11999
field mean 854.40186682224
field stddev 44.803267053178
field min 832
field max 944
field sum 10251968
field sqrsum 8783384576
attr interpolationmode none
attr recordingmode histogram
attr source "packetLength(merge(packetPushedIn, packetPulledIn))"
attr title "incoming packet lengths"
attr unit b
bin	-inf	0
bin	804	0
bin	806	0
bin	808	0
bin	810	0
bin	812	0
bin	814	0
bin	816	0
bin	818	0
bin	820	0
bin	822	0
bin	824	0
bin	826	0
bin	828	0
bin	830	0
bin	832	9599
bin	834	0
bin	836	0
bin	838	0
bin	840	0
bin	842	0
bin	844	0
bin	846	0
bin	848	0
bin	850	0
bin	852	0
bin	854	0
bin	856	0
bin	858	0
bin	860	0
bin	862	0
bin	864	0
bin	866	0
bin	868	0
bin	870	0
bin	872	0
bin	874	0
bin	876	0
bin	878	0
bin	880	0
bin	882	0
bin	884	0
bin	886	0
bin	888	0
bin	890	0
bin	892	0
bin	894	0
bin	896	0
bin	898	0
bin	900	0
bin	902	0
bin	904	0
bin	906	0
bin	908	0
bin	910	0
bin	912	0
bin	914	0
bin	916	0
bin	918	0
bin	920	0
bin	922	0
bin	924	0
bin	926	0
bin	928	0
bin	930	0
bin	932	0
bin	934	0
bin	936	0
bin	938	0
bin	940	0
bin	942	0
bin	944	2400
bin	946	0
bin	948	0
bin	950	0
bin	952	0
bin	954	0
bin	956	0
bin	958	0
bin	960	0
bin	962	0
bin	964	0
bin	966	0
bin	968	0
bin	970	0
bin	972	0
scalar TimeSyncUEUE.FGS.nwtt[0].tt[2].phyLayer.inboundEmitter flowIncomingPacketLengths:sum 0
attr interpolationmode none
attr recordingmode sum
attr source "packetLength(demuxFlow(merge(packetPushedIn, packetPulledIn)))"
attr title "flow specific incoming packet lengths, sum"
attr unit b
statistic TimeSyncUEUE.FGS.nwtt[0].tt[2].phyLayer.inboundEmitter flowIncomingPacketLengths:histogram
field count 0
field mean -nan
field stddev nan
field min nan
field max nan
field sum 0
field sqrsum 0
attr interpolationmode none
attr recordingmode histogram
attr source "packetLength(demuxFlow(merge(packetPushedIn, packetPulledIn)))"
attr title "flow specific incoming packet lengths"
attr unit b
bin	-inf	0
bin	0	0
bin	1	0
par TimeSyncUEUE.FGS.nwtt[0].tt[2].phyLayer.receiver typename "\"inet.protocolelement.transceiver.PacketReceiver\""
par TimeSyncUEUE.FGS.nwtt[0].tt[2].phyLayer.receiver displayStringTextFormat "\"processed %p pk (%l)\""
par TimeSyncUEUE.FGS.nwtt[0].tt[2].phyLayer.receiver datarate "inf bps"
attr unit bps
statistic TimeSyncUEUE.FGS.nwtt[0].tt[2].phyLayer.receiver receptionTime:histogram
field count 11999
field mean 0
field stddev 0
field min 0
field max 0
field sum 0
field sqrsum 0
attr interpolationmode none
attr recordingmode histogram
attr source packetDuration(receptionEnded)
attr title "reception time"
attr unit s
bin	-inf	0
bin	-0.5	0
bin	-0.48	0
bin	-0.46	0
bin	-0.44	0
bin	-0.42	0
bin	-0.4	0
bin	-0.38	0
bin	-0.36	0
bin	-0.34	0
bin	-0.32	0
bin	-0.3	0
bin	-0.28	0
bin	-0.26	0
bin	-0.24	0
bin	-0.22	0
bin	-0.2	0
bin	-0.18	0
bin	-0.16	0
bin	-0.14	0
bin	-0.12	0
bin	-0.1	0
bin	-0.08	0
bin	-0.06	0
bin	-0.04	0
bin	-0.02	0
bin	0	11999
bin	0.02	0
bin	0.04	0
bin	0.06	0
bin	0.08	0
bin	0.1	0
bin	0.12	0
bin	0.14	0
bin	0.16	0
bin	0.18	0
bin	0.2	0
bin	0.22	0
bin	0.24	0
bin	0.26	0
bin	0.28	0
bin	0.3	0
bin	0.32	0
bin	0.34	0
bin	0.36	0
bin	0.38	0
bin	0.4	0
bin	0.42	0
bin	0.44	0
bin	0.46	0
bin	0.48	0
bin	0.5	0
statistic TimeSyncUEUE.FGS.nwtt[0].tt[2].phyLayer.receiver flowReceptionTime:histogram
field count 0
field mean -nan
field stddev nan
field min nan
field max nan
field sum 0
field sqrsum 0
attr interpolationmode none
attr recordingmode histogram
attr source packetDuration(demuxFlow(receptionEnded))
attr title "flow reception time"
attr unit s
bin	-inf	0
bin	0	0
bin	1	0
par TimeSyncUEUE.FGS.nwtt[0].tt[2].phyLayer typename "\"inet.physicallayer.wired.ethernet.EthernetPhyLayer\""
par TimeSyncUEUE.FGS.nwtt[0].tt[2].phyLayer bitrate this.bitrate
attr unit bps
par TimeSyncUEUE.FGS.nwtt[0].tt[2].delayLayer.upperLayerIn.channel typename "\"ned.IdealChannel\""
par TimeSyncUEUE.FGS.nwtt[0].tt[2].delayLayer.egress.out.channel typename "\"ned.IdealChannel\""
par TimeSyncUEUE.FGS.nwtt[0].tt[2].delayLayer.lowerLayerIn.channel typename "\"ned.IdealChannel\""
par TimeSyncUEUE.FGS.nwtt[0].tt[2].delayLayer.egress typename "\"src.delayer.FGDelayer\""
par TimeSyncUEUE.FGS.nwtt[0].tt[2].delayLayer.egress displayStringTextFormat "\"processed %p pk (%l)\""
par TimeSyncUEUE.FGS.nwtt[0].tt[2].delayLayer.egress clockModule "\"\""
par TimeSyncUEUE.FGS.nwtt[0].tt[2].delayLayer.egress schedulingPriority 0
par TimeSyncUEUE.FGS.nwtt[0].tt[2].delayLayer.egress scheduleZeroDelay true
par TimeSyncUEUE.FGS.nwtt[0].tt[2].delayLayer.egress delay this.delay
attr unit s
par TimeSyncUEUE.FGS.nwtt[0].tt[2].delayLayer.egress delayQFI dup(this.delayQFI)
attr unit s
par TimeSyncUEUE.FGS.nwtt[0].tt[2].delayLayer typename "\"src.delayer.FGDelayLayer\""
par TimeSyncUEUE.FGS.nwtt[0].tt[2].delayLayer delay "isDstt ? this.delayD2D : this.delayDownlink"
attr mutable ""
attr unit s
par TimeSyncUEUE.FGS.nwtt[0].tt[2].delayLayer delayQFI dup(this.delayQFI)
attr mutable ""
attr unit s
par TimeSyncUEUE.FGS.nwtt[0].tt[2] typename "\"src.devices.tsntranslator.TTInterface\""
par TimeSyncUEUE.FGS.nwtt[0].tt[2] displayStringTextFormat "\"%a (%i)\\n%m\""
par TimeSyncUEUE.FGS.nwtt[0].tt[2] recordPcap false
par TimeSyncUEUE.FGS.nwtt[0].tt[2] numPcapRecorders 0
par TimeSyncUEUE.FGS.nwtt[0].tt[2] protocol "\"ethernetmac\""
par TimeSyncUEUE.FGS.nwtt[0].tt[2] broadcast true
par TimeSyncUEUE.FGS.nwtt[0].tt[2] multicast true
par TimeSyncUEUE.FGS.nwtt[0].tt[2] address "\"0A-AA-00-00-00-26\""
attr mutable ""
par TimeSyncUEUE.FGS.nwtt[0].tt[2] bitrate "inf bps"
attr unit bps
par TimeSyncUEUE.FGS.nwtt[0].tt[2] mtu 1500B
attr unit B
par TimeSyncUEUE.FGS.nwtt[0].tt[2] interfaceTableModule "\"TimeSyncUEUE.FGS.nwtt[0].interfaceTable\""
scalar TimeSyncUEUE.FGS.nwtt[0].tt[2] packetDropInterfaceDown:count 0
attr interpolationmode none
attr recordingmode count
attr source packetDropReasonIsInterfaceDown(packetDropped)
attr title "packet drops: interface down, count"
scalar TimeSyncUEUE.FGS.nwtt[0].tt[2] packetDropInterfaceDown:sum(packetBytes) 0
attr interpolationmode none
attr recordingmode sum(packetBytes)
attr source packetDropReasonIsInterfaceDown(packetDropped)
attr title "packet drops: interface down, sum(packetBytes)"
scalar TimeSyncUEUE.FGS.nwtt[0].tt[2] packetDropNoCarrier:count 0
attr interpolationmode none
attr recordingmode count
attr source packetDropReasonIsNoCarrier(packetDropped)
attr title "packet drops: no carrier, count"
scalar TimeSyncUEUE.FGS.nwtt[0].tt[2] packetDropNoCarrier:sum(packetBytes) 0
attr interpolationmode none
attr recordingmode sum(packetBytes)
attr source packetDropReasonIsNoCarrier(packetDropped)
attr title "packet drops: no carrier, sum(packetBytes)"
par TimeSyncUEUE.FGS.nwtt[0] typename "\"src.devices.tsntranslator.TT\""
par TimeSyncUEUE.FGS.nwtt[0] recordPcap false
par TimeSyncUEUE.FGS.nwtt[0] numPcapRecorders 0
par TimeSyncUEUE.FGS.nwtt[0] numApps 0
par TimeSyncUEUE.FGS.nwtt[0] hasStatus false
par TimeSyncUEUE.FGS.nwtt[0] hasStp false
par TimeSyncUEUE.FGS.nwtt[0] hasGptp true
par TimeSyncUEUE.FGS.nwtt[0] hasCutthroughSwitching false
par TimeSyncUEUE.FGS.nwtt[0] fcsMode "\"declared\""
attr enum declared,computed
par TimeSyncUEUE.FGS.nwtt[0] spanningTreeProtocol "\"Stp\""
par TimeSyncUEUE.FGS.nwtt[0] numEthInterfaces 0
par TimeSyncUEUE.FGS.nwtt[0] hasTimeSynchronization true
par TimeSyncUEUE.FGS.nwtt[0] hasIngressTrafficFiltering false
par TimeSyncUEUE.FGS.nwtt[0] hasEgressTrafficShaping false
par TimeSyncUEUE.FGS.nwtt[0] hasStreamRedundancy false
par TimeSyncUEUE.FGS.nwtt[0] hasIncomingStreams false
par TimeSyncUEUE.FGS.nwtt[0] hasOutgoingStreams false
par TimeSyncUEUE.FGS.nwtt[0] hasFramePreemption false
par TimeSyncUEUE.FGS.nwtt[0] numTtInterfaces 0
par TimeSyncUEUE.FGS.nwtt[0] isDstt false
par TimeSyncUEUE.FGS.nwtt[0] schedule false
par TimeSyncUEUE.FGS.nwtt[0] delayUplink 0s
attr mutable ""
attr unit s
par TimeSyncUEUE.FGS.nwtt[0] delayDownlink "rngProvider(\"histogramContainer\", \"s10\")"
attr mutable ""
attr unit s
par TimeSyncUEUE.FGS.nwtt[0] delayD2D 0s
attr mutable ""
attr unit s
par TimeSyncUEUE.FGS.nwtt[0] delayQFI "{  }"
attr mutable ""
attr unit s
par TimeSyncUEUE.FGS typename "\"src.devices.FiveGSv2\""
par TimeSyncUEUE.FGS scheduleFiveG false
par TimeSyncUEUE.FGS numUEs 1
par TimeSyncUEUE.FGS numUPFs 1
par TimeSyncUEUE.FGS delayConfig "<delays/> at content:1"
par TimeSyncUEUE.FGS bgbW 350
par TimeSyncUEUE typename "\"simulations.UseCase3.TimeSyncUEUE\""
par TimeSyncUEUE recordPcap false
par TimeSyncUEUE numPcapRecorders 0
par TimeSyncUEUE hasGlobalArp true

