file 28780512 1736221285                                        
version 3
run DL2-0-20250107-00:41:18-677688
attr configname DL2
attr datetime 20250107-00:41:18
attr datetimef 20250107-004118
attr experiment DL2
attr inifile omnetpp.ini
attr iterationvars ""
attr iterationvarsd ""
attr iterationvarsf ""
attr measurement ""
attr network TimeSyncUEUE
attr processid 677688
attr repetition 0
attr replication #0
attr resultdir results
attr runnumber 0
attr seedset 0
config image-path ../../../inet4.5-2/images
config extends DL
config **.clock.oscillator.typename ConstantDriftOscillator
config *.FGS.**.clock.oscillator.driftRate -10ppm
config *.SwitchDN.clock.oscillator.driftRate 0ppm
config **.oscillator.driftRate uniform(10ppm,100ppm)
config *.FGS.*.delayQFI "{3: rngProvider(\"histogramContainer\",\"s26\"),\n\t\t\t\t\t\t4: rngProvider(\"histogramContainer\",\"s20\"),\n\t\t\t\t\t\t66: rngProvider(\"histogramContainer\",\"s4\"),\n\t\t\t\t\t\t80: rngProvider(\"histogramContainer\",\"s6\"),\n\t\t\t\t\t\t83: rngProvider(\"histogramContainer\",\"s25\"),\n\t\t\t\t\t\t86: rngProvider(\"histogramContainer\",\"s19\"),\n\t\t\t\t\t\t87: rngProvider(\"histogramContainer\",\"gPTP\")}"
config *.**.hasTimeSynchronization true
config *.SwitchDN.gptp.gptpNodeType "\"MASTER_NODE\""
config *.SwitchDN.gptp.masterPorts "[\"eth0\",\"eth1\"]"
config *.SwitchDN.gptp.slavePort "\"\""
config *.SwitchS*.gptp.slavePort "\"eth0\""
config *.SwitchS1.gptp.masterPorts "[\"eth1\",\"eth2\",\"eth3\",\"eth4\"]"
config *.SwitchS2.gptp.masterPorts "[\"eth1\",\"eth2\"]"
config *.SwitchS3.gptp.masterPorts "[\"eth1\",\"eth2\"]"
config *.FGS.nwtt[*].gptp.domain[*].slavePort "\"eth0\""
config *.FGS.nwtt[*].gptp.domain[*].masterPorts "[\"tt0\",\"tt1\",\"tt2\"]"
config *.FGS.dstt[*].gptp.domain[*].slavePort "\"tt0\""
config *.FGS.dstt[*].gptp.domain[*].masterPorts "[\"eth0\"]"
config **.referenceClock "\"SwitchDN.clock\""
config *.visualizer.dataLinkVisualizer[0].displayLinks true
config *.visualizer.dataLinkVisualizer[0].activityLevel "\"protocol\""
config *.visualizer.dataLinkVisualizer[0].packetFilter "\"GptpSync\""
config *.visualizer.dataLinkVisualizer[0].lineColor "\"blue2\""
config *.visualizer.numInfoVisualizers 1
config *.visualizer.infoVisualizer[0].modules "\"*.*.clock\""
config *.SwitchDN.clock.displayStringTextFormat "\"time: %T\""
config *.*.clock.displayStringTextFormat "\"diff: %d\""
config network TimeSyncUEUE
config num-rngs 1
config sim-time-limit 50s
config **.TSNAppsTableFile "xmldoc(\"config/app.xml\")"
config *.histogramContainer.histograms "{s1: \"../../../deterministic6g_data/PD-Wireless-5G-1/s1-UL_wall.xml\",\n\t\t\t\t\t\t\t\t\ts24: \"../../../deterministic6g_data/PD-Wireless-5G-1/s24-UL_wall.xml\",\n\t\t\t\t\t\t\t\t\ts3: \"../../../deterministic6g_data/PD-Wireless-5G-1/s3-UL_wall.xml\",\n\t\t\t\t\t\t\t\t\ts4: \"../../../deterministic6g_data/PD-Wireless-5G-1/s4-UL_wall.xml\",\n\t\t\t\t\t\t\t\t\ts6: \"../../../deterministic6g_data/PD-Wireless-5G-1/s6-UL_wall.xml\",\n\t\t\t\t\t\t\t\t\ts7: \"../../../deterministic6g_data/PD-Wireless-5G-1/s7-UL_wall.xml\",\n\t\t\t\t\t\t\t\t\ts8: \"../../../deterministic6g_data/PD-Wireless-5G-1/s8-UL_wall.xml\",\n\t\t\t\t\t\t\t\t\ts9: \"../../../deterministic6g_data/PD-Wireless-5G-1/s9-UL_wall.xml\",\n\t\t\t\t\t\t\t\t\ts10: \"../../../deterministic6g_data/PD-Wireless-5G-1/s10-DL_wall.xml\",\n\t\t\t\t\t\t\t\t\ts19: \"../../../deterministic6g_data/PD-Wireless-5G-1/s19-DL_wall.xml\",\n\t\t\t\t\t\t\t\t\ts20: \"../../../deterministic6g_data/PD-Wireless-5G-1/s20-UL_wall.xml\",\n\t\t\t\t\t\t\t\t\ts25: \"../../../deterministic6g_data/PD-Wireless-5G-1/s25-DL_wall.xml\",\n\t\t\t\t\t\t\t\t\ts26: \"../../../deterministic6g_data/PD-Wireless-5G-1/s26-UL_wall.xml\",\n\t\t\t\t\t\t\t\t\tgPTP: \"../../../deterministic6g_data/PD-Wireless-5G-1/gPTP_cut.xml\"}"
config *.FGS.d*.delayUplink "rngProvider(\"histogramContainer\",\"s1\")"
config *.FGS.n*.delayDownlink "rngProvider(\"histogramContainer\",\"s10\")"
config *.FGS.d*.delayD2D "rngProvider(\"histogramContainer\",\"s1\")"
config *.visualizer.typename IntegratedMultiCanvasVisualizer
config *.visualizer.infoVisualizer[*].displayInfos true

vector 0 TimeSyncUEUE.SwitchS1.eth[0].macLayer.queue queueLength:vector ETV
attr autoWarmupFilter false
attr interpolationmode sample-hold
attr recordingmode vector
attr source "warmup(atomic(constant0(packetPushEnded) + count(packetPushStarted) - count(packetPulled) - count(packetRemoved) - count(packetDropped)))"
attr title "queue length"
attr unit pk
vector 1 TimeSyncUEUE.SwitchS1.eth[0].macLayer.queue queueBitLength:vector ETV
attr autoWarmupFilter false
attr interpolationmode sample-hold
attr recordingmode vector
attr source "warmup(atomic(constant0(packetPushEnded) + sum(packetLength(packetPushStarted)) - sum(packetLength(packetPulled)) - sum(packetLength(packetRemoved)) - sum(packetLength(packetDropped))))"
attr title "queue bit length"
attr unit b
vector 2 TimeSyncUEUE.SwitchS1.eth[0].phyLayer.interFrameGapInserter interpacketGap:vector ETV
attr interpolationmode sample-hold
attr recordingmode vector
attr source "count(interpacketGapStarted) - count(interpacketGapEnded)"
attr title "interpacket gap state"
attr type int
vector 3 TimeSyncUEUE.SwitchS1.eth[0].phyLayer.transmitter transmitting:vector ETV
attr interpolationmode sample-hold
attr recordingmode vector
attr source "count(transmissionStarted) - count(transmissionEnded)"
attr title "transmitting state"
attr type int
vector 4 TimeSyncUEUE.SwitchS1.eth[1].macLayer.queue queueLength:vector ETV
attr autoWarmupFilter false
attr interpolationmode sample-hold
attr recordingmode vector
attr source "warmup(atomic(constant0(packetPushEnded) + count(packetPushStarted) - count(packetPulled) - count(packetRemoved) - count(packetDropped)))"
attr title "queue length"
attr unit pk
vector 5 TimeSyncUEUE.SwitchS1.eth[1].macLayer.queue queueBitLength:vector ETV
attr autoWarmupFilter false
attr interpolationmode sample-hold
attr recordingmode vector
attr source "warmup(atomic(constant0(packetPushEnded) + sum(packetLength(packetPushStarted)) - sum(packetLength(packetPulled)) - sum(packetLength(packetRemoved)) - sum(packetLength(packetDropped))))"
attr title "queue bit length"
attr unit b
vector 6 TimeSyncUEUE.SwitchS1.eth[1].phyLayer.interFrameGapInserter interpacketGap:vector ETV
attr interpolationmode sample-hold
attr recordingmode vector
attr source "count(interpacketGapStarted) - count(interpacketGapEnded)"
attr title "interpacket gap state"
attr type int
vector 7 TimeSyncUEUE.SwitchS1.eth[1].phyLayer.transmitter transmitting:vector ETV
attr interpolationmode sample-hold
attr recordingmode vector
attr source "count(transmissionStarted) - count(transmissionEnded)"
attr title "transmitting state"
attr type int
vector 8 TimeSyncUEUE.SwitchS1.eth[2].macLayer.queue queueLength:vector ETV
attr autoWarmupFilter false
attr interpolationmode sample-hold
attr recordingmode vector
attr source "warmup(atomic(constant0(packetPushEnded) + count(packetPushStarted) - count(packetPulled) - count(packetRemoved) - count(packetDropped)))"
attr title "queue length"
attr unit pk
vector 9 TimeSyncUEUE.SwitchS1.eth[2].macLayer.queue queueBitLength:vector ETV
attr autoWarmupFilter false
attr interpolationmode sample-hold
attr recordingmode vector
attr source "warmup(atomic(constant0(packetPushEnded) + sum(packetLength(packetPushStarted)) - sum(packetLength(packetPulled)) - sum(packetLength(packetRemoved)) - sum(packetLength(packetDropped))))"
attr title "queue bit length"
attr unit b
vector 10 TimeSyncUEUE.SwitchS1.eth[2].phyLayer.interFrameGapInserter interpacketGap:vector ETV
attr interpolationmode sample-hold
attr recordingmode vector
attr source "count(interpacketGapStarted) - count(interpacketGapEnded)"
attr title "interpacket gap state"
attr type int
vector 11 TimeSyncUEUE.SwitchS1.eth[2].phyLayer.transmitter transmitting:vector ETV
attr interpolationmode sample-hold
attr recordingmode vector
attr source "count(transmissionStarted) - count(transmissionEnded)"
attr title "transmitting state"
attr type int
vector 12 TimeSyncUEUE.SwitchS1.eth[3].macLayer.queue queueLength:vector ETV
attr autoWarmupFilter false
attr interpolationmode sample-hold
attr recordingmode vector
attr source "warmup(atomic(constant0(packetPushEnded) + count(packetPushStarted) - count(packetPulled) - count(packetRemoved) - count(packetDropped)))"
attr title "queue length"
attr unit pk
vector 13 TimeSyncUEUE.SwitchS1.eth[3].macLayer.queue queueBitLength:vector ETV
attr autoWarmupFilter false
attr interpolationmode sample-hold
attr recordingmode vector
attr source "warmup(atomic(constant0(packetPushEnded) + sum(packetLength(packetPushStarted)) - sum(packetLength(packetPulled)) - sum(packetLength(packetRemoved)) - sum(packetLength(packetDropped))))"
attr title "queue bit length"
attr unit b
vector 14 TimeSyncUEUE.SwitchS1.eth[3].phyLayer.interFrameGapInserter interpacketGap:vector ETV
attr interpolationmode sample-hold
attr recordingmode vector
attr source "count(interpacketGapStarted) - count(interpacketGapEnded)"
attr title "interpacket gap state"
attr type int
vector 15 TimeSyncUEUE.SwitchS1.eth[3].phyLayer.transmitter transmitting:vector ETV
attr interpolationmode sample-hold
attr recordingmode vector
attr source "count(transmissionStarted) - count(transmissionEnded)"
attr title "transmitting state"
attr type int
vector 16 TimeSyncUEUE.SwitchS1.eth[4].macLayer.queue queueLength:vector ETV
attr autoWarmupFilter false
attr interpolationmode sample-hold
attr recordingmode vector
attr source "warmup(atomic(constant0(packetPushEnded) + count(packetPushStarted) - count(packetPulled) - count(packetRemoved) - count(packetDropped)))"
attr title "queue length"
attr unit pk
vector 17 TimeSyncUEUE.SwitchS1.eth[4].macLayer.queue queueBitLength:vector ETV
attr autoWarmupFilter false
attr interpolationmode sample-hold
attr recordingmode vector
attr source "warmup(atomic(constant0(packetPushEnded) + sum(packetLength(packetPushStarted)) - sum(packetLength(packetPulled)) - sum(packetLength(packetRemoved)) - sum(packetLength(packetDropped))))"
attr title "queue bit length"
attr unit b
vector 18 TimeSyncUEUE.SwitchS1.eth[4].phyLayer.interFrameGapInserter interpacketGap:vector ETV
attr interpolationmode sample-hold
attr recordingmode vector
attr source "count(interpacketGapStarted) - count(interpacketGapEnded)"
attr title "interpacket gap state"
attr type int
vector 19 TimeSyncUEUE.SwitchS1.eth[4].phyLayer.transmitter transmitting:vector ETV
attr interpolationmode sample-hold
attr recordingmode vector
attr source "count(transmissionStarted) - count(transmissionEnded)"
attr title "transmitting state"
attr type int
vector 20 TimeSyncUEUE.SensorS1.eth[0].macLayer.queue queueLength:vector ETV
attr autoWarmupFilter false
attr interpolationmode sample-hold
attr recordingmode vector
attr source "warmup(atomic(constant0(packetPushEnded) + count(packetPushStarted) - count(packetPulled) - count(packetRemoved) - count(packetDropped)))"
attr title "queue length"
attr unit pk
vector 21 TimeSyncUEUE.SensorS1.eth[0].macLayer.queue queueBitLength:vector ETV
attr autoWarmupFilter false
attr interpolationmode sample-hold
attr recordingmode vector
attr source "warmup(atomic(constant0(packetPushEnded) + sum(packetLength(packetPushStarted)) - sum(packetLength(packetPulled)) - sum(packetLength(packetRemoved)) - sum(packetLength(packetDropped))))"
attr title "queue bit length"
attr unit b
vector 22 TimeSyncUEUE.SensorS1.eth[0].phyLayer.interFrameGapInserter interpacketGap:vector ETV
attr interpolationmode sample-hold
attr recordingmode vector
attr source "count(interpacketGapStarted) - count(interpacketGapEnded)"
attr title "interpacket gap state"
attr type int
vector 23 TimeSyncUEUE.SensorS1.eth[0].phyLayer.transmitter transmitting:vector ETV
attr interpolationmode sample-hold
attr recordingmode vector
attr source "count(transmissionStarted) - count(transmissionEnded)"
attr title "transmitting state"
attr type int
vector 24 TimeSyncUEUE.SensorS1.udp passedUpPk:vector(count) ETV
attr interpolationmode none
attr recordingmode vector(count)
attr source packetSentToUpper
attr title "packets passed up, count"
vector 25 TimeSyncUEUE.SensorS1.udp droppedPkWrongPort:vector(count) ETV
attr interpolationmode none
attr recordingmode vector(count)
attr source packetDropReasonIsNoPortFound(packetDropped)
attr title "packets dropped (wrong port), count"
vector 26 TimeSyncUEUE.SensorS1.udp droppedPkBadChecksum:vector(count) ETV
attr interpolationmode none
attr recordingmode vector(count)
attr source packetDropReasonIsIncorrectlyReceived(packetDropped)
attr title "packets dropped (checksum error), count"
vector 27 TimeSyncUEUE.CameraS1.eth[0].macLayer.queue queueLength:vector ETV
attr autoWarmupFilter false
attr interpolationmode sample-hold
attr recordingmode vector
attr source "warmup(atomic(constant0(packetPushEnded) + count(packetPushStarted) - count(packetPulled) - count(packetRemoved) - count(packetDropped)))"
attr title "queue length"
attr unit pk
vector 28 TimeSyncUEUE.CameraS1.eth[0].macLayer.queue queueBitLength:vector ETV
attr autoWarmupFilter false
attr interpolationmode sample-hold
attr recordingmode vector
attr source "warmup(atomic(constant0(packetPushEnded) + sum(packetLength(packetPushStarted)) - sum(packetLength(packetPulled)) - sum(packetLength(packetRemoved)) - sum(packetLength(packetDropped))))"
attr title "queue bit length"
attr unit b
vector 29 TimeSyncUEUE.CameraS1.eth[0].phyLayer.interFrameGapInserter interpacketGap:vector ETV
attr interpolationmode sample-hold
attr recordingmode vector
attr source "count(interpacketGapStarted) - count(interpacketGapEnded)"
attr title "interpacket gap state"
attr type int
vector 30 TimeSyncUEUE.CameraS1.eth[0].phyLayer.transmitter transmitting:vector ETV
attr interpolationmode sample-hold
attr recordingmode vector
attr source "count(transmissionStarted) - count(transmissionEnded)"
attr title "transmitting state"
attr type int
vector 31 TimeSyncUEUE.CameraS1.udp passedUpPk:vector(count) ETV
attr interpolationmode none
attr recordingmode vector(count)
attr source packetSentToUpper
attr title "packets passed up, count"
vector 32 TimeSyncUEUE.CameraS1.udp droppedPkWrongPort:vector(count) ETV
attr interpolationmode none
attr recordingmode vector(count)
attr source packetDropReasonIsNoPortFound(packetDropped)
attr title "packets dropped (wrong port), count"
vector 33 TimeSyncUEUE.CameraS1.udp droppedPkBadChecksum:vector(count) ETV
attr interpolationmode none
attr recordingmode vector(count)
attr source packetDropReasonIsIncorrectlyReceived(packetDropped)
attr title "packets dropped (checksum error), count"
vector 34 TimeSyncUEUE.EsteiraS1.eth[0].macLayer.queue queueLength:vector ETV
attr autoWarmupFilter false
attr interpolationmode sample-hold
attr recordingmode vector
attr source "warmup(atomic(constant0(packetPushEnded) + count(packetPushStarted) - count(packetPulled) - count(packetRemoved) - count(packetDropped)))"
attr title "queue length"
attr unit pk
vector 35 TimeSyncUEUE.EsteiraS1.eth[0].macLayer.queue queueBitLength:vector ETV
attr autoWarmupFilter false
attr interpolationmode sample-hold
attr recordingmode vector
attr source "warmup(atomic(constant0(packetPushEnded) + sum(packetLength(packetPushStarted)) - sum(packetLength(packetPulled)) - sum(packetLength(packetRemoved)) - sum(packetLength(packetDropped))))"
attr title "queue bit length"
attr unit b
vector 36 TimeSyncUEUE.EsteiraS1.eth[0].phyLayer.interFrameGapInserter interpacketGap:vector ETV
attr interpolationmode sample-hold
attr recordingmode vector
attr source "count(interpacketGapStarted) - count(interpacketGapEnded)"
attr title "interpacket gap state"
attr type int
vector 37 TimeSyncUEUE.EsteiraS1.eth[0].phyLayer.transmitter transmitting:vector ETV
attr interpolationmode sample-hold
attr recordingmode vector
attr source "count(transmissionStarted) - count(transmissionEnded)"
attr title "transmitting state"
attr type int
vector 38 TimeSyncUEUE.EsteiraS1.udp passedUpPk:vector(count) ETV
attr interpolationmode none
attr recordingmode vector(count)
attr source packetSentToUpper
attr title "packets passed up, count"
vector 39 TimeSyncUEUE.EsteiraS1.udp droppedPkWrongPort:vector(count) ETV
attr interpolationmode none
attr recordingmode vector(count)
attr source packetDropReasonIsNoPortFound(packetDropped)
attr title "packets dropped (wrong port), count"
vector 40 TimeSyncUEUE.EsteiraS1.udp droppedPkBadChecksum:vector(count) ETV
attr interpolationmode none
attr recordingmode vector(count)
attr source packetDropReasonIsIncorrectlyReceived(packetDropped)
attr title "packets dropped (checksum error), count"
vector 41 TimeSyncUEUE.RoboS1.eth[0].macLayer.queue queueLength:vector ETV
attr autoWarmupFilter false
attr interpolationmode sample-hold
attr recordingmode vector
attr source "warmup(atomic(constant0(packetPushEnded) + count(packetPushStarted) - count(packetPulled) - count(packetRemoved) - count(packetDropped)))"
attr title "queue length"
attr unit pk
vector 42 TimeSyncUEUE.RoboS1.eth[0].macLayer.queue queueBitLength:vector ETV
attr autoWarmupFilter false
attr interpolationmode sample-hold
attr recordingmode vector
attr source "warmup(atomic(constant0(packetPushEnded) + sum(packetLength(packetPushStarted)) - sum(packetLength(packetPulled)) - sum(packetLength(packetRemoved)) - sum(packetLength(packetDropped))))"
attr title "queue bit length"
attr unit b
vector 43 TimeSyncUEUE.RoboS1.eth[0].phyLayer.interFrameGapInserter interpacketGap:vector ETV
attr interpolationmode sample-hold
attr recordingmode vector
attr source "count(interpacketGapStarted) - count(interpacketGapEnded)"
attr title "interpacket gap state"
attr type int
vector 44 TimeSyncUEUE.RoboS1.eth[0].phyLayer.transmitter transmitting:vector ETV
attr interpolationmode sample-hold
attr recordingmode vector
attr source "count(transmissionStarted) - count(transmissionEnded)"
attr title "transmitting state"
attr type int
vector 45 TimeSyncUEUE.RoboS1.udp passedUpPk:vector(count) ETV
attr interpolationmode none
attr recordingmode vector(count)
attr source packetSentToUpper
attr title "packets passed up, count"
vector 46 TimeSyncUEUE.RoboS1.udp droppedPkWrongPort:vector(count) ETV
attr interpolationmode none
attr recordingmode vector(count)
attr source packetDropReasonIsNoPortFound(packetDropped)
attr title "packets dropped (wrong port), count"
vector 47 TimeSyncUEUE.RoboS1.udp droppedPkBadChecksum:vector(count) ETV
attr interpolationmode none
attr recordingmode vector(count)
attr source packetDropReasonIsIncorrectlyReceived(packetDropped)
attr title "packets dropped (checksum error), count"
vector 48 TimeSyncUEUE.SwitchS2.eth[0].macLayer.queue queueLength:vector ETV
attr autoWarmupFilter false
attr interpolationmode sample-hold
attr recordingmode vector
attr source "warmup(atomic(constant0(packetPushEnded) + count(packetPushStarted) - count(packetPulled) - count(packetRemoved) - count(packetDropped)))"
attr title "queue length"
attr unit pk
vector 49 TimeSyncUEUE.SwitchS2.eth[0].macLayer.queue queueBitLength:vector ETV
attr autoWarmupFilter false
attr interpolationmode sample-hold
attr recordingmode vector
attr source "warmup(atomic(constant0(packetPushEnded) + sum(packetLength(packetPushStarted)) - sum(packetLength(packetPulled)) - sum(packetLength(packetRemoved)) - sum(packetLength(packetDropped))))"
attr title "queue bit length"
attr unit b
vector 50 TimeSyncUEUE.SwitchS2.eth[0].phyLayer.interFrameGapInserter interpacketGap:vector ETV
attr interpolationmode sample-hold
attr recordingmode vector
attr source "count(interpacketGapStarted) - count(interpacketGapEnded)"
attr title "interpacket gap state"
attr type int
vector 51 TimeSyncUEUE.SwitchS2.eth[0].phyLayer.transmitter transmitting:vector ETV
attr interpolationmode sample-hold
attr recordingmode vector
attr source "count(transmissionStarted) - count(transmissionEnded)"
attr title "transmitting state"
attr type int
vector 52 TimeSyncUEUE.SwitchS2.eth[1].macLayer.queue queueLength:vector ETV
attr autoWarmupFilter false
attr interpolationmode sample-hold
attr recordingmode vector
attr source "warmup(atomic(constant0(packetPushEnded) + count(packetPushStarted) - count(packetPulled) - count(packetRemoved) - count(packetDropped)))"
attr title "queue length"
attr unit pk
vector 53 TimeSyncUEUE.SwitchS2.eth[1].macLayer.queue queueBitLength:vector ETV
attr autoWarmupFilter false
attr interpolationmode sample-hold
attr recordingmode vector
attr source "warmup(atomic(constant0(packetPushEnded) + sum(packetLength(packetPushStarted)) - sum(packetLength(packetPulled)) - sum(packetLength(packetRemoved)) - sum(packetLength(packetDropped))))"
attr title "queue bit length"
attr unit b
vector 54 TimeSyncUEUE.SwitchS2.eth[1].phyLayer.interFrameGapInserter interpacketGap:vector ETV
attr interpolationmode sample-hold
attr recordingmode vector
attr source "count(interpacketGapStarted) - count(interpacketGapEnded)"
attr title "interpacket gap state"
attr type int
vector 55 TimeSyncUEUE.SwitchS2.eth[1].phyLayer.transmitter transmitting:vector ETV
attr interpolationmode sample-hold
attr recordingmode vector
attr source "count(transmissionStarted) - count(transmissionEnded)"
attr title "transmitting state"
attr type int
vector 56 TimeSyncUEUE.SwitchS2.eth[2].macLayer.queue queueLength:vector ETV
attr autoWarmupFilter false
attr interpolationmode sample-hold
attr recordingmode vector
attr source "warmup(atomic(constant0(packetPushEnded) + count(packetPushStarted) - count(packetPulled) - count(packetRemoved) - count(packetDropped)))"
attr title "queue length"
attr unit pk
vector 57 TimeSyncUEUE.SwitchS2.eth[2].macLayer.queue queueBitLength:vector ETV
attr autoWarmupFilter false
attr interpolationmode sample-hold
attr recordingmode vector
attr source "warmup(atomic(constant0(packetPushEnded) + sum(packetLength(packetPushStarted)) - sum(packetLength(packetPulled)) - sum(packetLength(packetRemoved)) - sum(packetLength(packetDropped))))"
attr title "queue bit length"
attr unit b
vector 58 TimeSyncUEUE.SwitchS2.eth[2].phyLayer.interFrameGapInserter interpacketGap:vector ETV
attr interpolationmode sample-hold
attr recordingmode vector
attr source "count(interpacketGapStarted) - count(interpacketGapEnded)"
attr title "interpacket gap state"
attr type int
vector 59 TimeSyncUEUE.SwitchS2.eth[2].phyLayer.transmitter transmitting:vector ETV
attr interpolationmode sample-hold
attr recordingmode vector
attr source "count(transmissionStarted) - count(transmissionEnded)"
attr title "transmitting state"
attr type int
vector 60 TimeSyncUEUE.EsteiraS2.eth[0].macLayer.queue queueLength:vector ETV
attr autoWarmupFilter false
attr interpolationmode sample-hold
attr recordingmode vector
attr source "warmup(atomic(constant0(packetPushEnded) + count(packetPushStarted) - count(packetPulled) - count(packetRemoved) - count(packetDropped)))"
attr title "queue length"
attr unit pk
vector 61 TimeSyncUEUE.EsteiraS2.eth[0].macLayer.queue queueBitLength:vector ETV
attr autoWarmupFilter false
attr interpolationmode sample-hold
attr recordingmode vector
attr source "warmup(atomic(constant0(packetPushEnded) + sum(packetLength(packetPushStarted)) - sum(packetLength(packetPulled)) - sum(packetLength(packetRemoved)) - sum(packetLength(packetDropped))))"
attr title "queue bit length"
attr unit b
vector 62 TimeSyncUEUE.EsteiraS2.eth[0].phyLayer.interFrameGapInserter interpacketGap:vector ETV
attr interpolationmode sample-hold
attr recordingmode vector
attr source "count(interpacketGapStarted) - count(interpacketGapEnded)"
attr title "interpacket gap state"
attr type int
vector 63 TimeSyncUEUE.EsteiraS2.eth[0].phyLayer.transmitter transmitting:vector ETV
attr interpolationmode sample-hold
attr recordingmode vector
attr source "count(transmissionStarted) - count(transmissionEnded)"
attr title "transmitting state"
attr type int
vector 64 TimeSyncUEUE.EsteiraS2.udp passedUpPk:vector(count) ETV
attr interpolationmode none
attr recordingmode vector(count)
attr source packetSentToUpper
attr title "packets passed up, count"
vector 65 TimeSyncUEUE.EsteiraS2.udp droppedPkWrongPort:vector(count) ETV
attr interpolationmode none
attr recordingmode vector(count)
attr source packetDropReasonIsNoPortFound(packetDropped)
attr title "packets dropped (wrong port), count"
vector 66 TimeSyncUEUE.EsteiraS2.udp droppedPkBadChecksum:vector(count) ETV
attr interpolationmode none
attr recordingmode vector(count)
attr source packetDropReasonIsIncorrectlyReceived(packetDropped)
attr title "packets dropped (checksum error), count"
vector 67 TimeSyncUEUE.RoboS2.eth[0].macLayer.queue queueLength:vector ETV
attr autoWarmupFilter false
attr interpolationmode sample-hold
attr recordingmode vector
attr source "warmup(atomic(constant0(packetPushEnded) + count(packetPushStarted) - count(packetPulled) - count(packetRemoved) - count(packetDropped)))"
attr title "queue length"
attr unit pk
vector 68 TimeSyncUEUE.RoboS2.eth[0].macLayer.queue queueBitLength:vector ETV
attr autoWarmupFilter false
attr interpolationmode sample-hold
attr recordingmode vector
attr source "warmup(atomic(constant0(packetPushEnded) + sum(packetLength(packetPushStarted)) - sum(packetLength(packetPulled)) - sum(packetLength(packetRemoved)) - sum(packetLength(packetDropped))))"
attr title "queue bit length"
attr unit b
vector 69 TimeSyncUEUE.RoboS2.eth[0].phyLayer.interFrameGapInserter interpacketGap:vector ETV
attr interpolationmode sample-hold
attr recordingmode vector
attr source "count(interpacketGapStarted) - count(interpacketGapEnded)"
attr title "interpacket gap state"
attr type int
vector 70 TimeSyncUEUE.RoboS2.eth[0].phyLayer.transmitter transmitting:vector ETV
attr interpolationmode sample-hold
attr recordingmode vector
attr source "count(transmissionStarted) - count(transmissionEnded)"
attr title "transmitting state"
attr type int
vector 71 TimeSyncUEUE.RoboS2.udp passedUpPk:vector(count) ETV
attr interpolationmode none
attr recordingmode vector(count)
attr source packetSentToUpper
attr title "packets passed up, count"
vector 72 TimeSyncUEUE.RoboS2.udp droppedPkWrongPort:vector(count) ETV
attr interpolationmode none
attr recordingmode vector(count)
attr source packetDropReasonIsNoPortFound(packetDropped)
attr title "packets dropped (wrong port), count"
vector 73 TimeSyncUEUE.RoboS2.udp droppedPkBadChecksum:vector(count) ETV
attr interpolationmode none
attr recordingmode vector(count)
attr source packetDropReasonIsIncorrectlyReceived(packetDropped)
attr title "packets dropped (checksum error), count"
vector 74 TimeSyncUEUE.SwitchS3.eth[0].macLayer.queue queueLength:vector ETV
attr autoWarmupFilter false
attr interpolationmode sample-hold
attr recordingmode vector
attr source "warmup(atomic(constant0(packetPushEnded) + count(packetPushStarted) - count(packetPulled) - count(packetRemoved) - count(packetDropped)))"
attr title "queue length"
attr unit pk
vector 75 TimeSyncUEUE.SwitchS3.eth[0].macLayer.queue queueBitLength:vector ETV
attr autoWarmupFilter false
attr interpolationmode sample-hold
attr recordingmode vector
attr source "warmup(atomic(constant0(packetPushEnded) + sum(packetLength(packetPushStarted)) - sum(packetLength(packetPulled)) - sum(packetLength(packetRemoved)) - sum(packetLength(packetDropped))))"
attr title "queue bit length"
attr unit b
vector 76 TimeSyncUEUE.SwitchS3.eth[0].phyLayer.interFrameGapInserter interpacketGap:vector ETV
attr interpolationmode sample-hold
attr recordingmode vector
attr source "count(interpacketGapStarted) - count(interpacketGapEnded)"
attr title "interpacket gap state"
attr type int
vector 77 TimeSyncUEUE.SwitchS3.eth[0].phyLayer.transmitter transmitting:vector ETV
attr interpolationmode sample-hold
attr recordingmode vector
attr source "count(transmissionStarted) - count(transmissionEnded)"
attr title "transmitting state"
attr type int
vector 78 TimeSyncUEUE.SwitchS3.eth[1].macLayer.queue queueLength:vector ETV
attr autoWarmupFilter false
attr interpolationmode sample-hold
attr recordingmode vector
attr source "warmup(atomic(constant0(packetPushEnded) + count(packetPushStarted) - count(packetPulled) - count(packetRemoved) - count(packetDropped)))"
attr title "queue length"
attr unit pk
vector 79 TimeSyncUEUE.SwitchS3.eth[1].macLayer.queue queueBitLength:vector ETV
attr autoWarmupFilter false
attr interpolationmode sample-hold
attr recordingmode vector
attr source "warmup(atomic(constant0(packetPushEnded) + sum(packetLength(packetPushStarted)) - sum(packetLength(packetPulled)) - sum(packetLength(packetRemoved)) - sum(packetLength(packetDropped))))"
attr title "queue bit length"
attr unit b
vector 80 TimeSyncUEUE.SwitchS3.eth[1].phyLayer.interFrameGapInserter interpacketGap:vector ETV
attr interpolationmode sample-hold
attr recordingmode vector
attr source "count(interpacketGapStarted) - count(interpacketGapEnded)"
attr title "interpacket gap state"
attr type int
vector 81 TimeSyncUEUE.SwitchS3.eth[1].phyLayer.transmitter transmitting:vector ETV
attr interpolationmode sample-hold
attr recordingmode vector
attr source "count(transmissionStarted) - count(transmissionEnded)"
attr title "transmitting state"
attr type int
vector 82 TimeSyncUEUE.SwitchS3.eth[2].macLayer.queue queueLength:vector ETV
attr autoWarmupFilter false
attr interpolationmode sample-hold
attr recordingmode vector
attr source "warmup(atomic(constant0(packetPushEnded) + count(packetPushStarted) - count(packetPulled) - count(packetRemoved) - count(packetDropped)))"
attr title "queue length"
attr unit pk
vector 83 TimeSyncUEUE.SwitchS3.eth[2].macLayer.queue queueBitLength:vector ETV
attr autoWarmupFilter false
attr interpolationmode sample-hold
attr recordingmode vector
attr source "warmup(atomic(constant0(packetPushEnded) + sum(packetLength(packetPushStarted)) - sum(packetLength(packetPulled)) - sum(packetLength(packetRemoved)) - sum(packetLength(packetDropped))))"
attr title "queue bit length"
attr unit b
vector 84 TimeSyncUEUE.SwitchS3.eth[2].phyLayer.interFrameGapInserter interpacketGap:vector ETV
attr interpolationmode sample-hold
attr recordingmode vector
attr source "count(interpacketGapStarted) - count(interpacketGapEnded)"
attr title "interpacket gap state"
attr type int
vector 85 TimeSyncUEUE.SwitchS3.eth[2].phyLayer.transmitter transmitting:vector ETV
attr interpolationmode sample-hold
attr recordingmode vector
attr source "count(transmissionStarted) - count(transmissionEnded)"
attr title "transmitting state"
attr type int
vector 86 TimeSyncUEUE.SensorS3.eth[0].macLayer.queue queueLength:vector ETV
attr autoWarmupFilter false
attr interpolationmode sample-hold
attr recordingmode vector
attr source "warmup(atomic(constant0(packetPushEnded) + count(packetPushStarted) - count(packetPulled) - count(packetRemoved) - count(packetDropped)))"
attr title "queue length"
attr unit pk
vector 87 TimeSyncUEUE.SensorS3.eth[0].macLayer.queue queueBitLength:vector ETV
attr autoWarmupFilter false
attr interpolationmode sample-hold
attr recordingmode vector
attr source "warmup(atomic(constant0(packetPushEnded) + sum(packetLength(packetPushStarted)) - sum(packetLength(packetPulled)) - sum(packetLength(packetRemoved)) - sum(packetLength(packetDropped))))"
attr title "queue bit length"
attr unit b
vector 88 TimeSyncUEUE.SensorS3.eth[0].phyLayer.interFrameGapInserter interpacketGap:vector ETV
attr interpolationmode sample-hold
attr recordingmode vector
attr source "count(interpacketGapStarted) - count(interpacketGapEnded)"
attr title "interpacket gap state"
attr type int
vector 89 TimeSyncUEUE.SensorS3.eth[0].phyLayer.transmitter transmitting:vector ETV
attr interpolationmode sample-hold
attr recordingmode vector
attr source "count(transmissionStarted) - count(transmissionEnded)"
attr title "transmitting state"
attr type int
vector 90 TimeSyncUEUE.SensorS3.udp passedUpPk:vector(count) ETV
attr interpolationmode none
attr recordingmode vector(count)
attr source packetSentToUpper
attr title "packets passed up, count"
vector 91 TimeSyncUEUE.SensorS3.udp droppedPkWrongPort:vector(count) ETV
attr interpolationmode none
attr recordingmode vector(count)
attr source packetDropReasonIsNoPortFound(packetDropped)
attr title "packets dropped (wrong port), count"
vector 92 TimeSyncUEUE.SensorS3.udp droppedPkBadChecksum:vector(count) ETV
attr interpolationmode none
attr recordingmode vector(count)
attr source packetDropReasonIsIncorrectlyReceived(packetDropped)
attr title "packets dropped (checksum error), count"
vector 93 TimeSyncUEUE.EsteiraS3.eth[0].macLayer.queue queueLength:vector ETV
attr autoWarmupFilter false
attr interpolationmode sample-hold
attr recordingmode vector
attr source "warmup(atomic(constant0(packetPushEnded) + count(packetPushStarted) - count(packetPulled) - count(packetRemoved) - count(packetDropped)))"
attr title "queue length"
attr unit pk
vector 94 TimeSyncUEUE.EsteiraS3.eth[0].macLayer.queue queueBitLength:vector ETV
attr autoWarmupFilter false
attr interpolationmode sample-hold
attr recordingmode vector
attr source "warmup(atomic(constant0(packetPushEnded) + sum(packetLength(packetPushStarted)) - sum(packetLength(packetPulled)) - sum(packetLength(packetRemoved)) - sum(packetLength(packetDropped))))"
attr title "queue bit length"
attr unit b
vector 95 TimeSyncUEUE.EsteiraS3.eth[0].phyLayer.interFrameGapInserter interpacketGap:vector ETV
attr interpolationmode sample-hold
attr recordingmode vector
attr source "count(interpacketGapStarted) - count(interpacketGapEnded)"
attr title "interpacket gap state"
attr type int
vector 96 TimeSyncUEUE.EsteiraS3.eth[0].phyLayer.transmitter transmitting:vector ETV
attr interpolationmode sample-hold
attr recordingmode vector
attr source "count(transmissionStarted) - count(transmissionEnded)"
attr title "transmitting state"
attr type int
vector 97 TimeSyncUEUE.EsteiraS3.udp passedUpPk:vector(count) ETV
attr interpolationmode none
attr recordingmode vector(count)
attr source packetSentToUpper
attr title "packets passed up, count"
vector 98 TimeSyncUEUE.EsteiraS3.udp droppedPkWrongPort:vector(count) ETV
attr interpolationmode none
attr recordingmode vector(count)
attr source packetDropReasonIsNoPortFound(packetDropped)
attr title "packets dropped (wrong port), count"
vector 99 TimeSyncUEUE.EsteiraS3.udp droppedPkBadChecksum:vector(count) ETV
attr interpolationmode none
attr recordingmode vector(count)
attr source packetDropReasonIsIncorrectlyReceived(packetDropped)
attr title "packets dropped (checksum error), count"
vector 100 TimeSyncUEUE.SwitchDN.eth[0].macLayer.queue queueLength:vector ETV
attr autoWarmupFilter false
attr interpolationmode sample-hold
attr recordingmode vector
attr source "warmup(atomic(constant0(packetPushEnded) + count(packetPushStarted) - count(packetPulled) - count(packetRemoved) - count(packetDropped)))"
attr title "queue length"
attr unit pk
vector 101 TimeSyncUEUE.SwitchDN.eth[0].macLayer.queue queueBitLength:vector ETV
attr autoWarmupFilter false
attr interpolationmode sample-hold
attr recordingmode vector
attr source "warmup(atomic(constant0(packetPushEnded) + sum(packetLength(packetPushStarted)) - sum(packetLength(packetPulled)) - sum(packetLength(packetRemoved)) - sum(packetLength(packetDropped))))"
attr title "queue bit length"
attr unit b
vector 102 TimeSyncUEUE.SwitchDN.eth[0].phyLayer.interFrameGapInserter interpacketGap:vector ETV
attr interpolationmode sample-hold
attr recordingmode vector
attr source "count(interpacketGapStarted) - count(interpacketGapEnded)"
attr title "interpacket gap state"
attr type int
vector 103 TimeSyncUEUE.SwitchDN.eth[0].phyLayer.transmitter transmitting:vector ETV
attr interpolationmode sample-hold
attr recordingmode vector
attr source "count(transmissionStarted) - count(transmissionEnded)"
attr title "transmitting state"
attr type int
vector 104 TimeSyncUEUE.SwitchDN.eth[1].macLayer.queue queueLength:vector ETV
attr autoWarmupFilter false
attr interpolationmode sample-hold
attr recordingmode vector
attr source "warmup(atomic(constant0(packetPushEnded) + count(packetPushStarted) - count(packetPulled) - count(packetRemoved) - count(packetDropped)))"
attr title "queue length"
attr unit pk
vector 105 TimeSyncUEUE.SwitchDN.eth[1].macLayer.queue queueBitLength:vector ETV
attr autoWarmupFilter false
attr interpolationmode sample-hold
attr recordingmode vector
attr source "warmup(atomic(constant0(packetPushEnded) + sum(packetLength(packetPushStarted)) - sum(packetLength(packetPulled)) - sum(packetLength(packetRemoved)) - sum(packetLength(packetDropped))))"
attr title "queue bit length"
attr unit b
vector 106 TimeSyncUEUE.SwitchDN.eth[1].phyLayer.interFrameGapInserter interpacketGap:vector ETV
attr interpolationmode sample-hold
attr recordingmode vector
attr source "count(interpacketGapStarted) - count(interpacketGapEnded)"
attr title "interpacket gap state"
attr type int
vector 107 TimeSyncUEUE.SwitchDN.eth[1].phyLayer.transmitter transmitting:vector ETV
attr interpolationmode sample-hold
attr recordingmode vector
attr source "count(transmissionStarted) - count(transmissionEnded)"
attr title "transmitting state"
attr type int
vector 108 TimeSyncUEUE.PLC.eth[0].macLayer.queue queueLength:vector ETV
attr autoWarmupFilter false
attr interpolationmode sample-hold
attr recordingmode vector
attr source "warmup(atomic(constant0(packetPushEnded) + count(packetPushStarted) - count(packetPulled) - count(packetRemoved) - count(packetDropped)))"
attr title "queue length"
attr unit pk
vector 109 TimeSyncUEUE.PLC.eth[0].macLayer.queue queueBitLength:vector ETV
attr autoWarmupFilter false
attr interpolationmode sample-hold
attr recordingmode vector
attr source "warmup(atomic(constant0(packetPushEnded) + sum(packetLength(packetPushStarted)) - sum(packetLength(packetPulled)) - sum(packetLength(packetRemoved)) - sum(packetLength(packetDropped))))"
attr title "queue bit length"
attr unit b
vector 110 TimeSyncUEUE.PLC.eth[0].phyLayer.interFrameGapInserter interpacketGap:vector ETV
attr interpolationmode sample-hold
attr recordingmode vector
attr source "count(interpacketGapStarted) - count(interpacketGapEnded)"
attr title "interpacket gap state"
attr type int
vector 111 TimeSyncUEUE.PLC.eth[0].phyLayer.transmitter transmitting:vector ETV
attr interpolationmode sample-hold
attr recordingmode vector
attr source "count(transmissionStarted) - count(transmissionEnded)"
attr title "transmitting state"
attr type int
vector 112 TimeSyncUEUE.PLC.udp passedUpPk:vector(count) ETV
attr interpolationmode none
attr recordingmode vector(count)
attr source packetSentToUpper
attr title "packets passed up, count"
vector 113 TimeSyncUEUE.PLC.udp droppedPkWrongPort:vector(count) ETV
attr interpolationmode none
attr recordingmode vector(count)
attr source packetDropReasonIsNoPortFound(packetDropped)
attr title "packets dropped (wrong port), count"
vector 114 TimeSyncUEUE.PLC.udp droppedPkBadChecksum:vector(count) ETV
attr interpolationmode none
attr recordingmode vector(count)
attr source packetDropReasonIsIncorrectlyReceived(packetDropped)
attr title "packets dropped (checksum error), count"
vector 115 TimeSyncUEUE.FGS.dstt[0].eth[0].macLayer.queue queueLength:vector ETV
attr autoWarmupFilter false
attr interpolationmode sample-hold
attr recordingmode vector
attr source "warmup(atomic(constant0(packetPushEnded) + count(packetPushStarted) - count(packetPulled) - count(packetRemoved) - count(packetDropped)))"
attr title "queue length"
attr unit pk
vector 116 TimeSyncUEUE.FGS.dstt[0].eth[0].macLayer.queue queueBitLength:vector ETV
attr autoWarmupFilter false
attr interpolationmode sample-hold
attr recordingmode vector
attr source "warmup(atomic(constant0(packetPushEnded) + sum(packetLength(packetPushStarted)) - sum(packetLength(packetPulled)) - sum(packetLength(packetRemoved)) - sum(packetLength(packetDropped))))"
attr title "queue bit length"
attr unit b
vector 117 TimeSyncUEUE.FGS.dstt[0].eth[0].phyLayer.interFrameGapInserter interpacketGap:vector ETV
attr interpolationmode sample-hold
attr recordingmode vector
attr source "count(interpacketGapStarted) - count(interpacketGapEnded)"
attr title "interpacket gap state"
attr type int
vector 118 TimeSyncUEUE.FGS.dstt[0].eth[0].phyLayer.transmitter transmitting:vector ETV
attr interpolationmode sample-hold
attr recordingmode vector
attr source "count(transmissionStarted) - count(transmissionEnded)"
attr title "transmitting state"
attr type int
vector 119 TimeSyncUEUE.FGS.dstt[0].tt[0].macLayer.queue queueLength:vector ETV
attr autoWarmupFilter false
attr interpolationmode sample-hold
attr recordingmode vector
attr source "warmup(atomic(constant0(packetPushEnded) + count(packetPushStarted) - count(packetPulled) - count(packetRemoved) - count(packetDropped)))"
attr title "queue length"
attr unit pk
vector 120 TimeSyncUEUE.FGS.dstt[0].tt[0].macLayer.queue queueBitLength:vector ETV
attr autoWarmupFilter false
attr interpolationmode sample-hold
attr recordingmode vector
attr source "warmup(atomic(constant0(packetPushEnded) + sum(packetLength(packetPushStarted)) - sum(packetLength(packetPulled)) - sum(packetLength(packetRemoved)) - sum(packetLength(packetDropped))))"
attr title "queue bit length"
attr unit b
vector 121 TimeSyncUEUE.FGS.dstt[0].tt[0].phyLayer.interFrameGapInserter interpacketGap:vector ETV
attr interpolationmode sample-hold
attr recordingmode vector
attr source "count(interpacketGapStarted) - count(interpacketGapEnded)"
attr title "interpacket gap state"
attr type int
vector 122 TimeSyncUEUE.FGS.dstt[0].tt[0].phyLayer.transmitter transmitting:vector ETV
attr interpolationmode sample-hold
attr recordingmode vector
attr source "count(transmissionStarted) - count(transmissionEnded)"
attr title "transmitting state"
attr type int
vector 123 TimeSyncUEUE.FGS.dstt[0].tt[1].macLayer.queue queueLength:vector ETV
attr autoWarmupFilter false
attr interpolationmode sample-hold
attr recordingmode vector
attr source "warmup(atomic(constant0(packetPushEnded) + count(packetPushStarted) - count(packetPulled) - count(packetRemoved) - count(packetDropped)))"
attr title "queue length"
attr unit pk
vector 124 TimeSyncUEUE.FGS.dstt[0].tt[1].macLayer.queue queueBitLength:vector ETV
attr autoWarmupFilter false
attr interpolationmode sample-hold
attr recordingmode vector
attr source "warmup(atomic(constant0(packetPushEnded) + sum(packetLength(packetPushStarted)) - sum(packetLength(packetPulled)) - sum(packetLength(packetRemoved)) - sum(packetLength(packetDropped))))"
attr title "queue bit length"
attr unit b
vector 125 TimeSyncUEUE.FGS.dstt[0].tt[1].phyLayer.interFrameGapInserter interpacketGap:vector ETV
attr interpolationmode sample-hold
attr recordingmode vector
attr source "count(interpacketGapStarted) - count(interpacketGapEnded)"
attr title "interpacket gap state"
attr type int
vector 126 TimeSyncUEUE.FGS.dstt[0].tt[1].phyLayer.transmitter transmitting:vector ETV
attr interpolationmode sample-hold
attr recordingmode vector
attr source "count(transmissionStarted) - count(transmissionEnded)"
attr title "transmitting state"
attr type int
vector 127 TimeSyncUEUE.FGS.dstt[0].tt[2].macLayer.queue queueLength:vector ETV
attr autoWarmupFilter false
attr interpolationmode sample-hold
attr recordingmode vector
attr source "warmup(atomic(constant0(packetPushEnded) + count(packetPushStarted) - count(packetPulled) - count(packetRemoved) - count(packetDropped)))"
attr title "queue length"
attr unit pk
vector 128 TimeSyncUEUE.FGS.dstt[0].tt[2].macLayer.queue queueBitLength:vector ETV
attr autoWarmupFilter false
attr interpolationmode sample-hold
attr recordingmode vector
attr source "warmup(atomic(constant0(packetPushEnded) + sum(packetLength(packetPushStarted)) - sum(packetLength(packetPulled)) - sum(packetLength(packetRemoved)) - sum(packetLength(packetDropped))))"
attr title "queue bit length"
attr unit b
vector 129 TimeSyncUEUE.FGS.dstt[0].tt[2].phyLayer.interFrameGapInserter interpacketGap:vector ETV
attr interpolationmode sample-hold
attr recordingmode vector
attr source "count(interpacketGapStarted) - count(interpacketGapEnded)"
attr title "interpacket gap state"
attr type int
vector 130 TimeSyncUEUE.FGS.dstt[0].tt[2].phyLayer.transmitter transmitting:vector ETV
attr interpolationmode sample-hold
attr recordingmode vector
attr source "count(transmissionStarted) - count(transmissionEnded)"
attr title "transmitting state"
attr type int
vector 131 TimeSyncUEUE.FGS.dstt[1].eth[0].macLayer.queue queueLength:vector ETV
attr autoWarmupFilter false
attr interpolationmode sample-hold
attr recordingmode vector
attr source "warmup(atomic(constant0(packetPushEnded) + count(packetPushStarted) - count(packetPulled) - count(packetRemoved) - count(packetDropped)))"
attr title "queue length"
attr unit pk
vector 132 TimeSyncUEUE.FGS.dstt[1].eth[0].macLayer.queue queueBitLength:vector ETV
attr autoWarmupFilter false
attr interpolationmode sample-hold
attr recordingmode vector
attr source "warmup(atomic(constant0(packetPushEnded) + sum(packetLength(packetPushStarted)) - sum(packetLength(packetPulled)) - sum(packetLength(packetRemoved)) - sum(packetLength(packetDropped))))"
attr title "queue bit length"
attr unit b
vector 133 TimeSyncUEUE.FGS.dstt[1].eth[0].phyLayer.interFrameGapInserter interpacketGap:vector ETV
attr interpolationmode sample-hold
attr recordingmode vector
attr source "count(interpacketGapStarted) - count(interpacketGapEnded)"
attr title "interpacket gap state"
attr type int
vector 134 TimeSyncUEUE.FGS.dstt[1].eth[0].phyLayer.transmitter transmitting:vector ETV
attr interpolationmode sample-hold
attr recordingmode vector
attr source "count(transmissionStarted) - count(transmissionEnded)"
attr title "transmitting state"
attr type int
vector 135 TimeSyncUEUE.FGS.dstt[1].tt[0].macLayer.queue queueLength:vector ETV
attr autoWarmupFilter false
attr interpolationmode sample-hold
attr recordingmode vector
attr source "warmup(atomic(constant0(packetPushEnded) + count(packetPushStarted) - count(packetPulled) - count(packetRemoved) - count(packetDropped)))"
attr title "queue length"
attr unit pk
vector 136 TimeSyncUEUE.FGS.dstt[1].tt[0].macLayer.queue queueBitLength:vector ETV
attr autoWarmupFilter false
attr interpolationmode sample-hold
attr recordingmode vector
attr source "warmup(atomic(constant0(packetPushEnded) + sum(packetLength(packetPushStarted)) - sum(packetLength(packetPulled)) - sum(packetLength(packetRemoved)) - sum(packetLength(packetDropped))))"
attr title "queue bit length"
attr unit b
vector 137 TimeSyncUEUE.FGS.dstt[1].tt[0].phyLayer.interFrameGapInserter interpacketGap:vector ETV
attr interpolationmode sample-hold
attr recordingmode vector
attr source "count(interpacketGapStarted) - count(interpacketGapEnded)"
attr title "interpacket gap state"
attr type int
vector 138 TimeSyncUEUE.FGS.dstt[1].tt[0].phyLayer.transmitter transmitting:vector ETV
attr interpolationmode sample-hold
attr recordingmode vector
attr source "count(transmissionStarted) - count(transmissionEnded)"
attr title "transmitting state"
attr type int
vector 139 TimeSyncUEUE.FGS.dstt[1].tt[1].macLayer.queue queueLength:vector ETV
attr autoWarmupFilter false
attr interpolationmode sample-hold
attr recordingmode vector
attr source "warmup(atomic(constant0(packetPushEnded) + count(packetPushStarted) - count(packetPulled) - count(packetRemoved) - count(packetDropped)))"
attr title "queue length"
attr unit pk
vector 140 TimeSyncUEUE.FGS.dstt[1].tt[1].macLayer.queue queueBitLength:vector ETV
attr autoWarmupFilter false
attr interpolationmode sample-hold
attr recordingmode vector
attr source "warmup(atomic(constant0(packetPushEnded) + sum(packetLength(packetPushStarted)) - sum(packetLength(packetPulled)) - sum(packetLength(packetRemoved)) - sum(packetLength(packetDropped))))"
attr title "queue bit length"
attr unit b
vector 141 TimeSyncUEUE.FGS.dstt[1].tt[1].phyLayer.interFrameGapInserter interpacketGap:vector ETV
attr interpolationmode sample-hold
attr recordingmode vector
attr source "count(interpacketGapStarted) - count(interpacketGapEnded)"
attr title "interpacket gap state"
attr type int
vector 142 TimeSyncUEUE.FGS.dstt[1].tt[1].phyLayer.transmitter transmitting:vector ETV
attr interpolationmode sample-hold
attr recordingmode vector
attr source "count(transmissionStarted) - count(transmissionEnded)"
attr title "transmitting state"
attr type int
vector 143 TimeSyncUEUE.FGS.dstt[1].tt[2].macLayer.queue queueLength:vector ETV
attr autoWarmupFilter false
attr interpolationmode sample-hold
attr recordingmode vector
attr source "warmup(atomic(constant0(packetPushEnded) + count(packetPushStarted) - count(packetPulled) - count(packetRemoved) - count(packetDropped)))"
attr title "queue length"
attr unit pk
vector 144 TimeSyncUEUE.FGS.dstt[1].tt[2].macLayer.queue queueBitLength:vector ETV
attr autoWarmupFilter false
attr interpolationmode sample-hold
attr recordingmode vector
attr source "warmup(atomic(constant0(packetPushEnded) + sum(packetLength(packetPushStarted)) - sum(packetLength(packetPulled)) - sum(packetLength(packetRemoved)) - sum(packetLength(packetDropped))))"
attr title "queue bit length"
attr unit b
vector 145 TimeSyncUEUE.FGS.dstt[1].tt[2].phyLayer.interFrameGapInserter interpacketGap:vector ETV
attr interpolationmode sample-hold
attr recordingmode vector
attr source "count(interpacketGapStarted) - count(interpacketGapEnded)"
attr title "interpacket gap state"
attr type int
vector 146 TimeSyncUEUE.FGS.dstt[1].tt[2].phyLayer.transmitter transmitting:vector ETV
attr interpolationmode sample-hold
attr recordingmode vector
attr source "count(transmissionStarted) - count(transmissionEnded)"
attr title "transmitting state"
attr type int
vector 147 TimeSyncUEUE.FGS.dstt[2].eth[0].macLayer.queue queueLength:vector ETV
attr autoWarmupFilter false
attr interpolationmode sample-hold
attr recordingmode vector
attr source "warmup(atomic(constant0(packetPushEnded) + count(packetPushStarted) - count(packetPulled) - count(packetRemoved) - count(packetDropped)))"
attr title "queue length"
attr unit pk
vector 148 TimeSyncUEUE.FGS.dstt[2].eth[0].macLayer.queue queueBitLength:vector ETV
attr autoWarmupFilter false
attr interpolationmode sample-hold
attr recordingmode vector
attr source "warmup(atomic(constant0(packetPushEnded) + sum(packetLength(packetPushStarted)) - sum(packetLength(packetPulled)) - sum(packetLength(packetRemoved)) - sum(packetLength(packetDropped))))"
attr title "queue bit length"
attr unit b
vector 149 TimeSyncUEUE.FGS.dstt[2].eth[0].phyLayer.interFrameGapInserter interpacketGap:vector ETV
attr interpolationmode sample-hold
attr recordingmode vector
attr source "count(interpacketGapStarted) - count(interpacketGapEnded)"
attr title "interpacket gap state"
attr type int
vector 150 TimeSyncUEUE.FGS.dstt[2].eth[0].phyLayer.transmitter transmitting:vector ETV
attr interpolationmode sample-hold
attr recordingmode vector
attr source "count(transmissionStarted) - count(transmissionEnded)"
attr title "transmitting state"
attr type int
vector 151 TimeSyncUEUE.FGS.dstt[2].tt[0].macLayer.queue queueLength:vector ETV
attr autoWarmupFilter false
attr interpolationmode sample-hold
attr recordingmode vector
attr source "warmup(atomic(constant0(packetPushEnded) + count(packetPushStarted) - count(packetPulled) - count(packetRemoved) - count(packetDropped)))"
attr title "queue length"
attr unit pk
vector 152 TimeSyncUEUE.FGS.dstt[2].tt[0].macLayer.queue queueBitLength:vector ETV
attr autoWarmupFilter false
attr interpolationmode sample-hold
attr recordingmode vector
attr source "warmup(atomic(constant0(packetPushEnded) + sum(packetLength(packetPushStarted)) - sum(packetLength(packetPulled)) - sum(packetLength(packetRemoved)) - sum(packetLength(packetDropped))))"
attr title "queue bit length"
attr unit b
vector 153 TimeSyncUEUE.FGS.dstt[2].tt[0].phyLayer.interFrameGapInserter interpacketGap:vector ETV
attr interpolationmode sample-hold
attr recordingmode vector
attr source "count(interpacketGapStarted) - count(interpacketGapEnded)"
attr title "interpacket gap state"
attr type int
vector 154 TimeSyncUEUE.FGS.dstt[2].tt[0].phyLayer.transmitter transmitting:vector ETV
attr interpolationmode sample-hold
attr recordingmode vector
attr source "count(transmissionStarted) - count(transmissionEnded)"
attr title "transmitting state"
attr type int
vector 155 TimeSyncUEUE.FGS.dstt[2].tt[1].macLayer.queue queueLength:vector ETV
attr autoWarmupFilter false
attr interpolationmode sample-hold
attr recordingmode vector
attr source "warmup(atomic(constant0(packetPushEnded) + count(packetPushStarted) - count(packetPulled) - count(packetRemoved) - count(packetDropped)))"
attr title "queue length"
attr unit pk
vector 156 TimeSyncUEUE.FGS.dstt[2].tt[1].macLayer.queue queueBitLength:vector ETV
attr autoWarmupFilter false
attr interpolationmode sample-hold
attr recordingmode vector
attr source "warmup(atomic(constant0(packetPushEnded) + sum(packetLength(packetPushStarted)) - sum(packetLength(packetPulled)) - sum(packetLength(packetRemoved)) - sum(packetLength(packetDropped))))"
attr title "queue bit length"
attr unit b
vector 157 TimeSyncUEUE.FGS.dstt[2].tt[1].phyLayer.interFrameGapInserter interpacketGap:vector ETV
attr interpolationmode sample-hold
attr recordingmode vector
attr source "count(interpacketGapStarted) - count(interpacketGapEnded)"
attr title "interpacket gap state"
attr type int
vector 158 TimeSyncUEUE.FGS.dstt[2].tt[1].phyLayer.transmitter transmitting:vector ETV
attr interpolationmode sample-hold
attr recordingmode vector
attr source "count(transmissionStarted) - count(transmissionEnded)"
attr title "transmitting state"
attr type int
vector 159 TimeSyncUEUE.FGS.dstt[2].tt[2].macLayer.queue queueLength:vector ETV
attr autoWarmupFilter false
attr interpolationmode sample-hold
attr recordingmode vector
attr source "warmup(atomic(constant0(packetPushEnded) + count(packetPushStarted) - count(packetPulled) - count(packetRemoved) - count(packetDropped)))"
attr title "queue length"
attr unit pk
vector 160 TimeSyncUEUE.FGS.dstt[2].tt[2].macLayer.queue queueBitLength:vector ETV
attr autoWarmupFilter false
attr interpolationmode sample-hold
attr recordingmode vector
attr source "warmup(atomic(constant0(packetPushEnded) + sum(packetLength(packetPushStarted)) - sum(packetLength(packetPulled)) - sum(packetLength(packetRemoved)) - sum(packetLength(packetDropped))))"
attr title "queue bit length"
attr unit b
vector 161 TimeSyncUEUE.FGS.dstt[2].tt[2].phyLayer.interFrameGapInserter interpacketGap:vector ETV
attr interpolationmode sample-hold
attr recordingmode vector
attr source "count(interpacketGapStarted) - count(interpacketGapEnded)"
attr title "interpacket gap state"
attr type int
vector 162 TimeSyncUEUE.FGS.dstt[2].tt[2].phyLayer.transmitter transmitting:vector ETV
attr interpolationmode sample-hold
attr recordingmode vector
attr source "count(transmissionStarted) - count(transmissionEnded)"
attr title "transmitting state"
attr type int
vector 163 TimeSyncUEUE.FGS.nwtt[0].eth[0].macLayer.queue queueLength:vector ETV
attr autoWarmupFilter false
attr interpolationmode sample-hold
attr recordingmode vector
attr source "warmup(atomic(constant0(packetPushEnded) + count(packetPushStarted) - count(packetPulled) - count(packetRemoved) - count(packetDropped)))"
attr title "queue length"
attr unit pk
vector 164 TimeSyncUEUE.FGS.nwtt[0].eth[0].macLayer.queue queueBitLength:vector ETV
attr autoWarmupFilter false
attr interpolationmode sample-hold
attr recordingmode vector
attr source "warmup(atomic(constant0(packetPushEnded) + sum(packetLength(packetPushStarted)) - sum(packetLength(packetPulled)) - sum(packetLength(packetRemoved)) - sum(packetLength(packetDropped))))"
attr title "queue bit length"
attr unit b
vector 165 TimeSyncUEUE.FGS.nwtt[0].eth[0].phyLayer.interFrameGapInserter interpacketGap:vector ETV
attr interpolationmode sample-hold
attr recordingmode vector
attr source "count(interpacketGapStarted) - count(interpacketGapEnded)"
attr title "interpacket gap state"
attr type int
vector 166 TimeSyncUEUE.FGS.nwtt[0].eth[0].phyLayer.transmitter transmitting:vector ETV
attr interpolationmode sample-hold
attr recordingmode vector
attr source "count(transmissionStarted) - count(transmissionEnded)"
attr title "transmitting state"
attr type int
vector 167 TimeSyncUEUE.FGS.nwtt[0].tt[0].macLayer.queue queueLength:vector ETV
attr autoWarmupFilter false
attr interpolationmode sample-hold
attr recordingmode vector
attr source "warmup(atomic(constant0(packetPushEnded) + count(packetPushStarted) - count(packetPulled) - count(packetRemoved) - count(packetDropped)))"
attr title "queue length"
attr unit pk
vector 168 TimeSyncUEUE.FGS.nwtt[0].tt[0].macLayer.queue queueBitLength:vector ETV
attr autoWarmupFilter false
attr interpolationmode sample-hold
attr recordingmode vector
attr source "warmup(atomic(constant0(packetPushEnded) + sum(packetLength(packetPushStarted)) - sum(packetLength(packetPulled)) - sum(packetLength(packetRemoved)) - sum(packetLength(packetDropped))))"
attr title "queue bit length"
attr unit b
vector 169 TimeSyncUEUE.FGS.nwtt[0].tt[0].phyLayer.interFrameGapInserter interpacketGap:vector ETV
attr interpolationmode sample-hold
attr recordingmode vector
attr source "count(interpacketGapStarted) - count(interpacketGapEnded)"
attr title "interpacket gap state"
attr type int
vector 170 TimeSyncUEUE.FGS.nwtt[0].tt[0].phyLayer.transmitter transmitting:vector ETV
attr interpolationmode sample-hold
attr recordingmode vector
attr source "count(transmissionStarted) - count(transmissionEnded)"
attr title "transmitting state"
attr type int
vector 171 TimeSyncUEUE.FGS.nwtt[0].tt[1].macLayer.queue queueLength:vector ETV
attr autoWarmupFilter false
attr interpolationmode sample-hold
attr recordingmode vector
attr source "warmup(atomic(constant0(packetPushEnded) + count(packetPushStarted) - count(packetPulled) - count(packetRemoved) - count(packetDropped)))"
attr title "queue length"
attr unit pk
vector 172 TimeSyncUEUE.FGS.nwtt[0].tt[1].macLayer.queue queueBitLength:vector ETV
attr autoWarmupFilter false
attr interpolationmode sample-hold
attr recordingmode vector
attr source "warmup(atomic(constant0(packetPushEnded) + sum(packetLength(packetPushStarted)) - sum(packetLength(packetPulled)) - sum(packetLength(packetRemoved)) - sum(packetLength(packetDropped))))"
attr title "queue bit length"
attr unit b
vector 173 TimeSyncUEUE.FGS.nwtt[0].tt[1].phyLayer.interFrameGapInserter interpacketGap:vector ETV
attr interpolationmode sample-hold
attr recordingmode vector
attr source "count(interpacketGapStarted) - count(interpacketGapEnded)"
attr title "interpacket gap state"
attr type int
vector 174 TimeSyncUEUE.FGS.nwtt[0].tt[1].phyLayer.transmitter transmitting:vector ETV
attr interpolationmode sample-hold
attr recordingmode vector
attr source "count(transmissionStarted) - count(transmissionEnded)"
attr title "transmitting state"
attr type int
vector 175 TimeSyncUEUE.FGS.nwtt[0].tt[2].macLayer.queue queueLength:vector ETV
attr autoWarmupFilter false
attr interpolationmode sample-hold
attr recordingmode vector
attr source "warmup(atomic(constant0(packetPushEnded) + count(packetPushStarted) - count(packetPulled) - count(packetRemoved) - count(packetDropped)))"
attr title "queue length"
attr unit pk
vector 176 TimeSyncUEUE.FGS.nwtt[0].tt[2].macLayer.queue queueBitLength:vector ETV
attr autoWarmupFilter false
attr interpolationmode sample-hold
attr recordingmode vector
attr source "warmup(atomic(constant0(packetPushEnded) + sum(packetLength(packetPushStarted)) - sum(packetLength(packetPulled)) - sum(packetLength(packetRemoved)) - sum(packetLength(packetDropped))))"
attr title "queue bit length"
attr unit b
vector 177 TimeSyncUEUE.FGS.nwtt[0].tt[2].phyLayer.interFrameGapInserter interpacketGap:vector ETV
attr interpolationmode sample-hold
attr recordingmode vector
attr source "count(interpacketGapStarted) - count(interpacketGapEnded)"
attr title "interpacket gap state"
attr type int
vector 178 TimeSyncUEUE.FGS.nwtt[0].tt[2].phyLayer.transmitter transmitting:vector ETV
attr interpolationmode sample-hold
attr recordingmode vector
attr source "count(transmissionStarted) - count(transmissionEnded)"
attr title "transmitting state"
attr type int
vector 179 TimeSyncUEUE.SwitchS1.clock timeChanged:vector ETV
attr interpolationmode linear
attr recordingmode vector
attr title "Clock time"
vector 180 TimeSyncUEUE.SensorS1.clock timeChanged:vector ETV
attr interpolationmode linear
attr recordingmode vector
attr title "Clock time"
vector 181 TimeSyncUEUE.CameraS1.clock timeChanged:vector ETV
attr interpolationmode linear
attr recordingmode vector
attr title "Clock time"
vector 182 TimeSyncUEUE.EsteiraS1.clock timeChanged:vector ETV
attr interpolationmode linear
attr recordingmode vector
attr title "Clock time"
vector 183 TimeSyncUEUE.RoboS1.clock timeChanged:vector ETV
attr interpolationmode linear
attr recordingmode vector
attr title "Clock time"
vector 184 TimeSyncUEUE.SwitchS2.clock timeChanged:vector ETV
attr interpolationmode linear
attr recordingmode vector
attr title "Clock time"
vector 185 TimeSyncUEUE.EsteiraS2.clock timeChanged:vector ETV
attr interpolationmode linear
attr recordingmode vector
attr title "Clock time"
vector 186 TimeSyncUEUE.RoboS2.clock timeChanged:vector ETV
attr interpolationmode linear
attr recordingmode vector
attr title "Clock time"
vector 187 TimeSyncUEUE.SwitchS3.clock timeChanged:vector ETV
attr interpolationmode linear
attr recordingmode vector
attr title "Clock time"
vector 188 TimeSyncUEUE.SensorS3.clock timeChanged:vector ETV
attr interpolationmode linear
attr recordingmode vector
attr title "Clock time"
vector 189 TimeSyncUEUE.EsteiraS3.clock timeChanged:vector ETV
attr interpolationmode linear
attr recordingmode vector
attr title "Clock time"
vector 190 TimeSyncUEUE.SwitchDN.clock timeChanged:vector ETV
attr interpolationmode linear
attr recordingmode vector
attr title "Clock time"
vector 191 TimeSyncUEUE.PLC.clock timeChanged:vector ETV
attr interpolationmode linear
attr recordingmode vector
attr title "Clock time"
vector 192 TimeSyncUEUE.FGS.dstt[0].clock timeChanged:vector ETV
attr interpolationmode linear
attr recordingmode vector
attr title "Clock time"
vector 193 TimeSyncUEUE.FGS.dstt[1].clock timeChanged:vector ETV
attr interpolationmode linear
attr recordingmode vector
attr title "Clock time"
vector 194 TimeSyncUEUE.FGS.dstt[2].clock timeChanged:vector ETV
attr interpolationmode linear
attr recordingmode vector
attr title "Clock time"
vector 195 TimeSyncUEUE.FGS.nwtt[0].clock timeChanged:vector ETV
attr interpolationmode linear
attr recordingmode vector
attr title "Clock time"
vector 196 TimeSyncUEUE.SwitchS1.ethernet.macHeaderInserter incomingPacketLengths:vector ETV
attr interpolationmode none
attr recordingmode vector
attr source "packetLength(merge(packetPushedIn, packetPulledIn))"
attr title "incoming packet lengths"
attr unit b
vector 197 TimeSyncUEUE.SwitchS1.ethernet.macHeaderInserter outgoingPacketLengths:vector ETV
attr interpolationmode none
attr recordingmode vector
attr source "packetLength(merge(packetPushedOut, packetPulledOut))"
attr title "outgoing packet lengths"
attr unit b
vector 198 TimeSyncUEUE.SwitchS1.ethernet.paddingInserter incomingPacketLengths:vector ETV
attr interpolationmode none
attr recordingmode vector
attr source "packetLength(merge(packetPushedIn, packetPulledIn))"
attr title "incoming packet lengths"
attr unit b
vector 199 TimeSyncUEUE.SwitchS1.ethernet.paddingInserter outgoingPacketLengths:vector ETV
attr interpolationmode none
attr recordingmode vector
attr source "packetLength(merge(packetPushedOut, packetPulledOut))"
attr title "outgoing packet lengths"
attr unit b
vector 200 TimeSyncUEUE.SwitchS1.ethernet.fcsInserter incomingPacketLengths:vector ETV
attr interpolationmode none
attr recordingmode vector
attr source "packetLength(merge(packetPushedIn, packetPulledIn))"
attr title "incoming packet lengths"
attr unit b
vector 201 TimeSyncUEUE.SwitchS1.ethernet.fcsInserter outgoingPacketLengths:vector ETV
attr interpolationmode none
attr recordingmode vector
attr source "packetLength(merge(packetPushedOut, packetPulledOut))"
attr title "outgoing packet lengths"
attr unit b
vector 202 TimeSyncUEUE.SwitchS1.eth[0].macLayer.queue incomingPacketLengths:vector ETV
attr interpolationmode none
attr recordingmode vector
attr source packetLength(packetPushStarted)
attr title "incoming packet lengths"
attr unit b
vector 203 TimeSyncUEUE.SensorS1.ethernet.macHeaderInserter incomingPacketLengths:vector ETV
attr interpolationmode none
attr recordingmode vector
attr source "packetLength(merge(packetPushedIn, packetPulledIn))"
attr title "incoming packet lengths"
attr unit b
vector 204 TimeSyncUEUE.SensorS1.ethernet.macHeaderInserter outgoingPacketLengths:vector ETV
attr interpolationmode none
attr recordingmode vector
attr source "packetLength(merge(packetPushedOut, packetPulledOut))"
attr title "outgoing packet lengths"
attr unit b
vector 205 TimeSyncUEUE.SensorS1.ethernet.paddingInserter incomingPacketLengths:vector ETV
attr interpolationmode none
attr recordingmode vector
attr source "packetLength(merge(packetPushedIn, packetPulledIn))"
attr title "incoming packet lengths"
attr unit b
vector 206 TimeSyncUEUE.SensorS1.ethernet.paddingInserter outgoingPacketLengths:vector ETV
attr interpolationmode none
attr recordingmode vector
attr source "packetLength(merge(packetPushedOut, packetPulledOut))"
attr title "outgoing packet lengths"
attr unit b
vector 207 TimeSyncUEUE.SensorS1.ethernet.fcsInserter incomingPacketLengths:vector ETV
attr interpolationmode none
attr recordingmode vector
attr source "packetLength(merge(packetPushedIn, packetPulledIn))"
attr title "incoming packet lengths"
attr unit b
vector 208 TimeSyncUEUE.SensorS1.ethernet.fcsInserter outgoingPacketLengths:vector ETV
attr interpolationmode none
attr recordingmode vector
attr source "packetLength(merge(packetPushedOut, packetPulledOut))"
attr title "outgoing packet lengths"
attr unit b
vector 209 TimeSyncUEUE.SensorS1.eth[0].macLayer.queue incomingPacketLengths:vector ETV
attr interpolationmode none
attr recordingmode vector
attr source packetLength(packetPushStarted)
attr title "incoming packet lengths"
attr unit b
vector 210 TimeSyncUEUE.CameraS1.ethernet.macHeaderInserter incomingPacketLengths:vector ETV
attr interpolationmode none
attr recordingmode vector
attr source "packetLength(merge(packetPushedIn, packetPulledIn))"
attr title "incoming packet lengths"
attr unit b
vector 211 TimeSyncUEUE.CameraS1.ethernet.macHeaderInserter outgoingPacketLengths:vector ETV
attr interpolationmode none
attr recordingmode vector
attr source "packetLength(merge(packetPushedOut, packetPulledOut))"
attr title "outgoing packet lengths"
attr unit b
vector 212 TimeSyncUEUE.CameraS1.ethernet.paddingInserter incomingPacketLengths:vector ETV
attr interpolationmode none
attr recordingmode vector
attr source "packetLength(merge(packetPushedIn, packetPulledIn))"
attr title "incoming packet lengths"
attr unit b
vector 213 TimeSyncUEUE.CameraS1.ethernet.paddingInserter outgoingPacketLengths:vector ETV
attr interpolationmode none
attr recordingmode vector
attr source "packetLength(merge(packetPushedOut, packetPulledOut))"
attr title "outgoing packet lengths"
attr unit b
vector 214 TimeSyncUEUE.CameraS1.ethernet.fcsInserter incomingPacketLengths:vector ETV
attr interpolationmode none
attr recordingmode vector
attr source "packetLength(merge(packetPushedIn, packetPulledIn))"
attr title "incoming packet lengths"
attr unit b
vector 215 TimeSyncUEUE.CameraS1.ethernet.fcsInserter outgoingPacketLengths:vector ETV
attr interpolationmode none
attr recordingmode vector
attr source "packetLength(merge(packetPushedOut, packetPulledOut))"
attr title "outgoing packet lengths"
attr unit b
vector 216 TimeSyncUEUE.CameraS1.eth[0].macLayer.queue incomingPacketLengths:vector ETV
attr interpolationmode none
attr recordingmode vector
attr source packetLength(packetPushStarted)
attr title "incoming packet lengths"
attr unit b
vector 217 TimeSyncUEUE.EsteiraS1.ethernet.macHeaderInserter incomingPacketLengths:vector ETV
attr interpolationmode none
attr recordingmode vector
attr source "packetLength(merge(packetPushedIn, packetPulledIn))"
attr title "incoming packet lengths"
attr unit b
vector 218 TimeSyncUEUE.EsteiraS1.ethernet.macHeaderInserter outgoingPacketLengths:vector ETV
attr interpolationmode none
attr recordingmode vector
attr source "packetLength(merge(packetPushedOut, packetPulledOut))"
attr title "outgoing packet lengths"
attr unit b
vector 219 TimeSyncUEUE.EsteiraS1.ethernet.paddingInserter incomingPacketLengths:vector ETV
attr interpolationmode none
attr recordingmode vector
attr source "packetLength(merge(packetPushedIn, packetPulledIn))"
attr title "incoming packet lengths"
attr unit b
vector 220 TimeSyncUEUE.EsteiraS1.ethernet.paddingInserter outgoingPacketLengths:vector ETV
attr interpolationmode none
attr recordingmode vector
attr source "packetLength(merge(packetPushedOut, packetPulledOut))"
attr title "outgoing packet lengths"
attr unit b
vector 221 TimeSyncUEUE.EsteiraS1.ethernet.fcsInserter incomingPacketLengths:vector ETV
attr interpolationmode none
attr recordingmode vector
attr source "packetLength(merge(packetPushedIn, packetPulledIn))"
attr title "incoming packet lengths"
attr unit b
vector 222 TimeSyncUEUE.EsteiraS1.ethernet.fcsInserter outgoingPacketLengths:vector ETV
attr interpolationmode none
attr recordingmode vector
attr source "packetLength(merge(packetPushedOut, packetPulledOut))"
attr title "outgoing packet lengths"
attr unit b
vector 223 TimeSyncUEUE.EsteiraS1.eth[0].macLayer.queue incomingPacketLengths:vector ETV
attr interpolationmode none
attr recordingmode vector
attr source packetLength(packetPushStarted)
attr title "incoming packet lengths"
attr unit b
vector 224 TimeSyncUEUE.RoboS1.ethernet.macHeaderInserter incomingPacketLengths:vector ETV
attr interpolationmode none
attr recordingmode vector
attr source "packetLength(merge(packetPushedIn, packetPulledIn))"
attr title "incoming packet lengths"
attr unit b
vector 225 TimeSyncUEUE.RoboS1.ethernet.macHeaderInserter outgoingPacketLengths:vector ETV
attr interpolationmode none
attr recordingmode vector
attr source "packetLength(merge(packetPushedOut, packetPulledOut))"
attr title "outgoing packet lengths"
attr unit b
vector 226 TimeSyncUEUE.RoboS1.ethernet.paddingInserter incomingPacketLengths:vector ETV
attr interpolationmode none
attr recordingmode vector
attr source "packetLength(merge(packetPushedIn, packetPulledIn))"
attr title "incoming packet lengths"
attr unit b
vector 227 TimeSyncUEUE.RoboS1.ethernet.paddingInserter outgoingPacketLengths:vector ETV
attr interpolationmode none
attr recordingmode vector
attr source "packetLength(merge(packetPushedOut, packetPulledOut))"
attr title "outgoing packet lengths"
attr unit b
vector 228 TimeSyncUEUE.RoboS1.ethernet.fcsInserter incomingPacketLengths:vector ETV
attr interpolationmode none
attr recordingmode vector
attr source "packetLength(merge(packetPushedIn, packetPulledIn))"
attr title "incoming packet lengths"
attr unit b
vector 229 TimeSyncUEUE.RoboS1.ethernet.fcsInserter outgoingPacketLengths:vector ETV
attr interpolationmode none
attr recordingmode vector
attr source "packetLength(merge(packetPushedOut, packetPulledOut))"
attr title "outgoing packet lengths"
attr unit b
vector 230 TimeSyncUEUE.RoboS1.eth[0].macLayer.queue incomingPacketLengths:vector ETV
attr interpolationmode none
attr recordingmode vector
attr source packetLength(packetPushStarted)
attr title "incoming packet lengths"
attr unit b
vector 231 TimeSyncUEUE.SwitchS2.ethernet.macHeaderInserter incomingPacketLengths:vector ETV
attr interpolationmode none
attr recordingmode vector
attr source "packetLength(merge(packetPushedIn, packetPulledIn))"
attr title "incoming packet lengths"
attr unit b
vector 232 TimeSyncUEUE.SwitchS2.ethernet.macHeaderInserter outgoingPacketLengths:vector ETV
attr interpolationmode none
attr recordingmode vector
attr source "packetLength(merge(packetPushedOut, packetPulledOut))"
attr title "outgoing packet lengths"
attr unit b
vector 233 TimeSyncUEUE.SwitchS2.ethernet.paddingInserter incomingPacketLengths:vector ETV
attr interpolationmode none
attr recordingmode vector
attr source "packetLength(merge(packetPushedIn, packetPulledIn))"
attr title "incoming packet lengths"
attr unit b
vector 234 TimeSyncUEUE.SwitchS2.ethernet.paddingInserter outgoingPacketLengths:vector ETV
attr interpolationmode none
attr recordingmode vector
attr source "packetLength(merge(packetPushedOut, packetPulledOut))"
attr title "outgoing packet lengths"
attr unit b
vector 235 TimeSyncUEUE.SwitchS2.ethernet.fcsInserter incomingPacketLengths:vector ETV
attr interpolationmode none
attr recordingmode vector
attr source "packetLength(merge(packetPushedIn, packetPulledIn))"
attr title "incoming packet lengths"
attr unit b
vector 236 TimeSyncUEUE.SwitchS2.ethernet.fcsInserter outgoingPacketLengths:vector ETV
attr interpolationmode none
attr recordingmode vector
attr source "packetLength(merge(packetPushedOut, packetPulledOut))"
attr title "outgoing packet lengths"
attr unit b
vector 237 TimeSyncUEUE.SwitchS2.eth[0].macLayer.queue incomingPacketLengths:vector ETV
attr interpolationmode none
attr recordingmode vector
attr source packetLength(packetPushStarted)
attr title "incoming packet lengths"
attr unit b
vector 238 TimeSyncUEUE.EsteiraS2.ethernet.macHeaderInserter incomingPacketLengths:vector ETV
attr interpolationmode none
attr recordingmode vector
attr source "packetLength(merge(packetPushedIn, packetPulledIn))"
attr title "incoming packet lengths"
attr unit b
vector 239 TimeSyncUEUE.EsteiraS2.ethernet.macHeaderInserter outgoingPacketLengths:vector ETV
attr interpolationmode none
attr recordingmode vector
attr source "packetLength(merge(packetPushedOut, packetPulledOut))"
attr title "outgoing packet lengths"
attr unit b
vector 240 TimeSyncUEUE.EsteiraS2.ethernet.paddingInserter incomingPacketLengths:vector ETV
attr interpolationmode none
attr recordingmode vector
attr source "packetLength(merge(packetPushedIn, packetPulledIn))"
attr title "incoming packet lengths"
attr unit b
vector 241 TimeSyncUEUE.EsteiraS2.ethernet.paddingInserter outgoingPacketLengths:vector ETV
attr interpolationmode none
attr recordingmode vector
attr source "packetLength(merge(packetPushedOut, packetPulledOut))"
attr title "outgoing packet lengths"
attr unit b
vector 242 TimeSyncUEUE.EsteiraS2.ethernet.fcsInserter incomingPacketLengths:vector ETV
attr interpolationmode none
attr recordingmode vector
attr source "packetLength(merge(packetPushedIn, packetPulledIn))"
attr title "incoming packet lengths"
attr unit b
vector 243 TimeSyncUEUE.EsteiraS2.ethernet.fcsInserter outgoingPacketLengths:vector ETV
attr interpolationmode none
attr recordingmode vector
attr source "packetLength(merge(packetPushedOut, packetPulledOut))"
attr title "outgoing packet lengths"
attr unit b
vector 244 TimeSyncUEUE.EsteiraS2.eth[0].macLayer.queue incomingPacketLengths:vector ETV
attr interpolationmode none
attr recordingmode vector
attr source packetLength(packetPushStarted)
attr title "incoming packet lengths"
attr unit b
vector 245 TimeSyncUEUE.RoboS2.ethernet.macHeaderInserter incomingPacketLengths:vector ETV
attr interpolationmode none
attr recordingmode vector
attr source "packetLength(merge(packetPushedIn, packetPulledIn))"
attr title "incoming packet lengths"
attr unit b
vector 246 TimeSyncUEUE.RoboS2.ethernet.macHeaderInserter outgoingPacketLengths:vector ETV
attr interpolationmode none
attr recordingmode vector
attr source "packetLength(merge(packetPushedOut, packetPulledOut))"
attr title "outgoing packet lengths"
attr unit b
vector 247 TimeSyncUEUE.RoboS2.ethernet.paddingInserter incomingPacketLengths:vector ETV
attr interpolationmode none
attr recordingmode vector
attr source "packetLength(merge(packetPushedIn, packetPulledIn))"
attr title "incoming packet lengths"
attr unit b
vector 248 TimeSyncUEUE.RoboS2.ethernet.paddingInserter outgoingPacketLengths:vector ETV
attr interpolationmode none
attr recordingmode vector
attr source "packetLength(merge(packetPushedOut, packetPulledOut))"
attr title "outgoing packet lengths"
attr unit b
vector 249 TimeSyncUEUE.RoboS2.ethernet.fcsInserter incomingPacketLengths:vector ETV
attr interpolationmode none
attr recordingmode vector
attr source "packetLength(merge(packetPushedIn, packetPulledIn))"
attr title "incoming packet lengths"
attr unit b
vector 250 TimeSyncUEUE.RoboS2.ethernet.fcsInserter outgoingPacketLengths:vector ETV
attr interpolationmode none
attr recordingmode vector
attr source "packetLength(merge(packetPushedOut, packetPulledOut))"
attr title "outgoing packet lengths"
attr unit b
vector 251 TimeSyncUEUE.RoboS2.eth[0].macLayer.queue incomingPacketLengths:vector ETV
attr interpolationmode none
attr recordingmode vector
attr source packetLength(packetPushStarted)
attr title "incoming packet lengths"
attr unit b
vector 252 TimeSyncUEUE.SwitchS3.ethernet.macHeaderInserter incomingPacketLengths:vector ETV
attr interpolationmode none
attr recordingmode vector
attr source "packetLength(merge(packetPushedIn, packetPulledIn))"
attr title "incoming packet lengths"
attr unit b
vector 253 TimeSyncUEUE.SwitchS3.ethernet.macHeaderInserter outgoingPacketLengths:vector ETV
attr interpolationmode none
attr recordingmode vector
attr source "packetLength(merge(packetPushedOut, packetPulledOut))"
attr title "outgoing packet lengths"
attr unit b
vector 254 TimeSyncUEUE.SwitchS3.ethernet.paddingInserter incomingPacketLengths:vector ETV
attr interpolationmode none
attr recordingmode vector
attr source "packetLength(merge(packetPushedIn, packetPulledIn))"
attr title "incoming packet lengths"
attr unit b
vector 255 TimeSyncUEUE.SwitchS3.ethernet.paddingInserter outgoingPacketLengths:vector ETV
attr interpolationmode none
attr recordingmode vector
attr source "packetLength(merge(packetPushedOut, packetPulledOut))"
attr title "outgoing packet lengths"
attr unit b
vector 256 TimeSyncUEUE.SwitchS3.ethernet.fcsInserter incomingPacketLengths:vector ETV
attr interpolationmode none
attr recordingmode vector
attr source "packetLength(merge(packetPushedIn, packetPulledIn))"
attr title "incoming packet lengths"
attr unit b
vector 257 TimeSyncUEUE.SwitchS3.ethernet.fcsInserter outgoingPacketLengths:vector ETV
attr interpolationmode none
attr recordingmode vector
attr source "packetLength(merge(packetPushedOut, packetPulledOut))"
attr title "outgoing packet lengths"
attr unit b
vector 258 TimeSyncUEUE.SwitchS3.eth[0].macLayer.queue incomingPacketLengths:vector ETV
attr interpolationmode none
attr recordingmode vector
attr source packetLength(packetPushStarted)
attr title "incoming packet lengths"
attr unit b
vector 259 TimeSyncUEUE.SensorS3.ethernet.macHeaderInserter incomingPacketLengths:vector ETV
attr interpolationmode none
attr recordingmode vector
attr source "packetLength(merge(packetPushedIn, packetPulledIn))"
attr title "incoming packet lengths"
attr unit b
vector 260 TimeSyncUEUE.SensorS3.ethernet.macHeaderInserter outgoingPacketLengths:vector ETV
attr interpolationmode none
attr recordingmode vector
attr source "packetLength(merge(packetPushedOut, packetPulledOut))"
attr title "outgoing packet lengths"
attr unit b
vector 261 TimeSyncUEUE.SensorS3.ethernet.paddingInserter incomingPacketLengths:vector ETV
attr interpolationmode none
attr recordingmode vector
attr source "packetLength(merge(packetPushedIn, packetPulledIn))"
attr title "incoming packet lengths"
attr unit b
vector 262 TimeSyncUEUE.SensorS3.ethernet.paddingInserter outgoingPacketLengths:vector ETV
attr interpolationmode none
attr recordingmode vector
attr source "packetLength(merge(packetPushedOut, packetPulledOut))"
attr title "outgoing packet lengths"
attr unit b
vector 263 TimeSyncUEUE.SensorS3.ethernet.fcsInserter incomingPacketLengths:vector ETV
attr interpolationmode none
attr recordingmode vector
attr source "packetLength(merge(packetPushedIn, packetPulledIn))"
attr title "incoming packet lengths"
attr unit b
[...]
1480	27080892 40 104804 104804 49.9 50 2 0 12640 12640 159769600
1481	27080932 40 104804 104804 49.9 50 2 0 12640 12640 159769600
1482	27080972 40 104804 104804 49.9 50 2 0 12640 12640 159769600
1490	27081012 40 104804 104804 49.9 50 2 0 12640 12640 159769600
1491	27081052 40 104804 104804 49.9 50 2 0 12640 12640 159769600
1492	27081092 40 104804 104804 49.9 50 2 0 12640 12640 159769600
1500	27081132 40 104804 104804 49.9 50 2 0 13920 13920 193766400
1501	27081172 40 104804 104804 49.9 50 2 0 13920 13920 193766400
1502	27081212 40 104804 104804 49.9 50 2 0 13920 13920 193766400
1503	27081252 40 104804 104804 49.9 50 2 0 13920 13920 193766400
1504	27081292 40 104804 104804 49.9 50 2 0 13920 13920 193766400
1517	27081332 40 104804 104804 49.9 50 2 0 13920 13920 193766400
1530	27081372 40 104804 104804 49.9 50 2 0 13920 13920 193766400
1543	27081412 40 104804 104804 49.9 50 2 0 13920 13920 193766400
1576	27081452 20 104804 104804 50 50 1 5760 5760 5760 33177600
1577	27081472 20 104804 104804 50 50 1 5760 5760 5760 33177600
1578	27081492 20 104804 104804 50 50 1 5760 5760 5760 33177600
1579	27081512 20 104804 104804 50 50 1 5760 5760 5760 33177600
1593	27081532 20 104804 104804 50 50 1 5760 5760 5760 33177600
1594	27081552 20 104804 104804 50 50 1 5760 5760 5760 33177600
1595	27081572 20 104804 104804 50 50 1 5760 5760 5760 33177600
1596	27081592 20 104804 104804 50 50 1 5760 5760 5760 33177600
1610	27081612 20 104804 104804 50 50 1 5760 5760 5760 33177600
1611	27081632 20 104804 104804 50 50 1 5760 5760 5760 33177600
1612	27081652 20 104804 104804 50 50 1 5760 5760 5760 33177600
1613	27081672 20 104804 104804 50 50 1 5760 5760 5760 33177600
1627	27081692 20 104804 104804 50 50 1 5760 5760 5760 33177600
1628	27081712 20 104804 104804 50 50 1 5760 5760 5760 33177600
1629	27081732 20 104804 104804 50 50 1 5760 5760 5760 33177600
1630	27081752 20 104804 104804 50 50 1 5760 5760 5760 33177600
1644	27081772 20 104804 104804 50 50 1 5760 5760 5760 33177600
1645	27081792 20 104804 104804 50 50 1 5760 5760 5760 33177600
1646	27081812 20 104804 104804 50 50 1 5760 5760 5760 33177600
1647	27081832 20 104804 104804 50 50 1 5760 5760 5760 33177600
1661	27081852 20 104804 104804 50 50 1 5760 5760 5760 33177600
1662	27081872 20 104804 104804 50 50 1 5760 5760 5760 33177600
1663	27081892 20 104804 104804 50 50 1 5760 5760 5760 33177600
1664	27081912 20 104804 104804 50 50 1 5760 5760 5760 33177600
1666	27081932 114 104780 104780 49.4 49.9 6 0 0 0 0
1667	27082046 191 104780 104780 49 49.9 10 0 5760 5760 33177600
1668	27082237 191 104780 104780 49 49.9 10 0 6400 6400 40960000
1669	27082428 191 104780 104780 49 49.9 10 0 6400 6400 40960000
1670	27082619 191 104780 104780 49 49.9 10 0 6400 6400 40960000
1671	27082810 181 104780 104780 49.1 49.9 9 0 0.047269907 0.047269907 0.0022344441077886
1672	27082991 191 104782 104782 49 49.9 10 0 4320 4320 18662400
1673	27083182 191 104782 104782 49 49.9 10 0 5440 5440 29593600
1674	27083373 191 104782 104782 49 49.9 10 0 5440 5440 29593600
1675	27083564 191 104782 104782 49 49.9 10 0 5440 5440 29593600
1676	27083755 191 104782 104782 49 49.9 10 0 5440 5440 29593600
1677	27083946 191 104782 104782 49 49.9 10 0 5760 5760 33177600
1678	27084137 211 104782 104804 49 50 11 0 5760 11520 66355200
1679	27084348 211 104783 104804 49 50 11 0 5760 11520 66355200
1680	27084559 211 104783 104804 49 50 11 0 5760 11520 66355200
1681	27084770 211 104783 104804 49 50 11 0 5760 11520 66355200
1682	27084981 191 104783 104783 49 49.9 10 0 5760 5760 33177600
1683	27085172 191 104783 104783 49 49.9 10 0 5760 5760 33177600
1684	27085363 191 104783 104783 49 49.9 10 0 5760 5760 33177600
1685	27085554 191 104783 104783 49 49.9 10 0 6400 6400 40960000
1686	27085745 191 104783 104783 49 49.9 10 0 6400 6400 40960000
1687	27085936 191 104783 104783 49 49.9 10 0 6400 6400 40960000
1688	27086127 181 104783 104783 49.1 49.9 9 0 0.047813522 0.047813522 0.0022861328860445
1689	27086308 191 104785 104785 49 49.9 10 0 4320 4320 18662400
1690	27086499 191 104785 104785 49 49.9 10 0 5440 5440 29593600
1691	27086690 191 104785 104785 49 49.9 10 0 5440 5440 29593600
1692	27086881 191 104785 104785 49 49.9 10 0 5440 5440 29593600
1693	27087072 191 104785 104785 49 49.9 10 0 5440 5440 29593600
1694	27087263 191 104785 104785 49 49.9 10 0 5760 5760 33177600
1695	27087454 211 104785 104804 49 50 11 0 5760 11520 66355200
1696	27087665 211 104786 104804 49 50 11 0 5760 11520 66355200
1697	27087876 211 104786 104804 49 50 11 0 5760 11520 66355200
1698	27088087 211 104786 104804 49 50 11 0 5760 11520 66355200
1699	27088298 191 104786 104786 49 49.9 10 0 5760 5760 33177600
1700	27088489 191 104786 104786 49 49.9 10 0 5760 5760 33177600
1701	27088680 191 104786 104786 49 49.9 10 0 5760 5760 33177600
1702	27088871 191 104786 104786 49 49.9 10 0 6400 6400 40960000
1703	27089062 191 104786 104786 49 49.9 10 0 6400 6400 40960000
1704	27089253 191 104786 104786 49 49.9 10 0 6400 6400 40960000
1705	27089444 181 104786 104786 49.1 49.9 9 0 0.048041853 0.048041853 0.0023080196396736
1706	27089625 211 104788 104804 49 50 11 0 5760 11520 66355200
1707	27089836 211 104789 104804 49 50 11 0 5760 11520 66355200
1708	27090047 211 104789 104804 49 50 11 0 5760 11520 66355200
1709	27090258 211 104789 104804 49 50 11 0 5760 11520 66355200
1710	27090469 191 104789 104789 49 49.9 10 0 5760 5760 33177600
1711	27090660 191 104789 104789 49 49.9 10 0 5760 5760 33177600
1712	27090851 191 104789 104789 49 49.9 10 0 5760 5760 33177600
1713	27091042 191 104789 104789 49 49.9 10 0 6400 6400 40960000
1714	27091233 191 104789 104789 49 49.9 10 0 6400 6400 40960000
1715	27091424 191 104789 104789 49 49.9 10 0 6400 6400 40960000
1716	27091615 181 104789 104789 49.1 49.9 9 0 0.048806371 0.048806371 0.0023820618501896
1717	27091796 191 104791 104791 49 49.9 10 0 4320 4320 18662400
1718	27091987 191 104791 104791 49 49.9 10 0 5440 5440 29593600
1719	27092178 191 104791 104791 49 49.9 10 0 5440 5440 29593600
1720	27092369 191 104791 104791 49 49.9 10 0 5440 5440 29593600
1721	27092560 191 104791 104791 49 49.9 10 0 5440 5440 29593600
1722	27092751 191 104791 104791 49 49.9 10 0 5760 5760 33177600
1723	27092942 211 104791 104804 49 50 11 0 5760 11520 66355200
1724	27093153 211 104792 104804 49 50 11 0 5760 11520 66355200
1725	27093364 211 104792 104804 49 50 11 0 5760 11520 66355200
1726	27093575 211 104792 104804 49 50 11 0 5760 11520 66355200
1727	27093786 191 104792 104792 49 49.9 10 0 5760 5760 33177600
1728	27093977 191 104792 104792 49 49.9 10 0 5760 5760 33177600
1729	27094168 191 104792 104792 49 49.9 10 0 5760 5760 33177600
1730	27094359 191 104792 104792 49 49.9 10 0 6400 6400 40960000
1731	27094550 191 104792 104792 49 49.9 10 0 6400 6400 40960000
1732	27094741 191 104792 104792 49 49.9 10 0 6400 6400 40960000
1733	27094932 181 104792 104792 49.1 49.9 9 0 0.049309039 0.049309039 0.0024313813271035
1734	27095113 211 104794 104804 49 50 11 0 5760 11520 66355200
1735	27095324 211 104795 104804 49 50 11 0 5760 11520 66355200
1736	27095535 211 104795 104804 49 50 11 0 5760 11520 66355200
1737	27095746 211 104795 104804 49 50 11 0 5760 11520 66355200
1738	27095957 191 104795 104795 49 49.9 10 0 5760 5760 33177600
1739	27096148 191 104795 104795 49 49.9 10 0 5760 5760 33177600
1740	27096339 191 104795 104795 49 49.9 10 0 5760 5760 33177600
1741	27096530 191 104795 104795 49 49.9 10 0 6400 6400 40960000
1742	27096721 191 104795 104795 49 49.9 10 0 6400 6400 40960000
1743	27096912 191 104795 104795 49 49.9 10 0 6400 6400 40960000
1744	27097103 181 104795 104795 49.1 49.9 9 0 0.051673496 0.051673496 0.002670150188862
1745	27097284 191 104797 104797 49 49.9 10 0 4320 4320 18662400
1746	27097475 191 104797 104797 49 49.9 10 0 5440 5440 29593600
1747	27097666 191 104797 104797 49 49.9 10 0 5440 5440 29593600
1748	27097857 191 104797 104797 49 49.9 10 0 5440 5440 29593600
1749	27098048 191 104797 104797 49 49.9 10 0 5440 5440 29593600
1750	27098239 191 104797 104797 49 49.9 10 0 5760 5760 33177600
1751	27098430 211 104797 104804 49 50 11 0 5760 11520 66355200
1752	27098641 211 104798 104804 49 50 11 0 5760 11520 66355200
1753	27098852 211 104798 104804 49 50 11 0 5760 11520 66355200
1754	27099063 211 104798 104804 49 50 11 0 5760 11520 66355200
1755	27099274 191 104798 104798 49 49.9 10 0 5760 5760 33177600
1756	27099465 191 104798 104798 49 49.9 10 0 5760 5760 33177600
1757	27099656 191 104798 104798 49 49.9 10 0 5760 5760 33177600
1758	27099847 191 104798 104798 49 49.9 10 0 6400 6400 40960000
1759	27100038 191 104798 104798 49 49.9 10 0 6400 6400 40960000
1760	27100229 191 104798 104798 49 49.9 10 0 6400 6400 40960000
1761	27100420 181 104798 104798 49.1 49.9 9 0 0.052848841 0.052848841 0.0027929999950433
1762	27100601 191 104804 104804 49.1 50 10 0 6400 6400 40960000
1763	27100792 191 104804 104804 49.1 50 10 0 6400 6400 40960000
1772	27100983 191 104804 104804 49.1 50 10 0 6400 6400 40960000
1773	27101174 191 104804 104804 49.1 50 10 0 6400 6400 40960000
1782	27101365 191 104804 104804 49.1 50 10 0 6400 6400 40960000
1783	27101556 191 104804 104804 49.1 50 10 0 6400 6400 40960000
1792	27101747 191 104804 104804 49.1 50 10 0 6400 6400 40960000
1793	27101938 191 104804 104804 49.1 50 10 0 6400 6400 40960000
1802	27102129 191 104804 104804 49.1 50 10 0 6400 6400 40960000
1803	27102320 191 104804 104804 49.1 50 10 0 6400 6400 40960000
1812	27102511 191 104804 104804 49.1 50 10 0 6400 6400 40960000
1813	27102702 191 104804 104804 49.1 50 10 0 6400 6400 40960000
1822	27102893 191 104804 104804 49.1 50 10 0 6400 6400 40960000
1823	27103084 191 104804 104804 49.1 50 10 0 6400 6400 40960000
1832	27103275 191 104804 104804 49.1 50 10 0 6400 6400 40960000
1833	27103466 191 104804 104804 49.1 50 10 0 6400 6400 40960000
1842	27103657 191 104804 104804 49.1 50 10 0 6400 6400 40960000
1843	27103848 191 104804 104804 49.1 50 10 0 6400 6400 40960000
1852	27104039 191 104804 104804 49.1 50 10 0 6400 6400 40960000
1853	27104230 191 104804 104804 49.1 50 10 0 6400 6400 40960000
1862	27104421 191 104804 104804 49.1 50 10 0 5760 5760 33177600
1863	27104612 191 104804 104804 49.1 50 10 0 5760 5760 33177600
1864	27104803 191 104804 104804 49.1 50 10 0 5760 5760 33177600
1865	27104994 191 104804 104804 49.1 50 10 0 5760 5760 33177600
1873	27105185 191 104804 104804 49.1 50 10 0 6400 6400 40960000
1874	27105376 191 104804 104804 49.1 50 10 0 6400 6400 40960000
1883	27105567 191 104804 104804 49.1 50 10 0 6400 6400 40960000
1884	27105758 191 104804 104804 49.1 50 10 0 6400 6400 40960000
1899	27105949 191 104804 104804 49.1 50 10 0 6400 6400 40960000
1900	27106140 191 104804 104804 49.1 50 10 0 6400 6400 40960000
1909	27106331 9301 104804 104804 0.1 50 500 0 0 0 0
1910	27115632 9301 104804 104804 0.1 50 500 0 0 0 0
1911	27124933 9301 104804 104804 0.1 50 500 0 0 0 0
1912	27134234 9301 104804 104804 0.1 50 500 0 0 0 0
1913	27143535 9301 104804 104804 0.1 50 500 0 0 0 0
1914	27152836 9301 104804 104804 0.1 50 500 0 0 0 0
1915	27162137 9301 104804 104804 0.1 50 500 0 0 0 0
1916	27171438 9301 104804 104804 0.1 50 500 0 0 0 0
1917	27180739 9301 104804 104804 0.1 50 500 0 0 0 0
1918	27190040 9301 104804 104804 0.1 50 500 0 0 0 0
1919	27199341 9301 104804 104804 0.1 50 500 0 0 0 0
1920	27208642 9301 104804 104804 0.1 50 500 0 0 0 0
1921	27217943 9301 104804 104804 0.1 50 500 0 0 0 0
1922	27227244 9301 104804 104804 0.1 50 500 0 0 0 0
1923	27236545 9301 104804 104804 0.1 50 500 0 0 0 0
1924	27245846 9301 104804 104804 0.1 50 500 0 0 0 0
1925	27255147 9301 104804 104804 0.1 50 500 0 0 0 0
1926	27264448 9301 104804 104804 0.1 50 500 0 0 0 0
1927	27273749 9301 104804 104804 0.1 50 500 0 0 0 0
1928	27283050 9301 104804 104804 0.1 50 500 0 0 0 0
1929	27292351 9301 104804 104804 0.1 50 500 0 0 0 0
1930	27301652 9301 104804 104804 0.1 50 500 0 0 0 0
1931	27310953 9301 104804 104804 0.1 50 500 0 0 0 0
1932	27320254 9301 104804 104804 0.1 50 500 0 0 0 0
1933	27329555 9301 104804 104804 0.1 50 500 0 0 0 0
1934	27338856 9301 104804 104804 0.1 50 500 0 0 0 0
1935	27348157 9301 104804 104804 0.1 50 500 0 0 0 0
1936	27357458 9301 104804 104804 0.1 50 500 0 0 0 0
1937	27366759 9301 104804 104804 0.1 50 500 0 0 0 0
1938	27376060 9301 104804 104804 0.1 50 500 0 0 0 0
1939	27385361 9301 104804 104804 0.1 50 500 0 0 0 0
1940	27394662 9301 104804 104804 0.1 50 500 0 0 0 0
1941	27403963 9301 104804 104804 0.1 50 500 0 0 0 0
1942	27413264 9301 104804 104804 0.1 50 500 0 0 0 0
1943	27422565 9301 104804 104804 0.1 50 500 0 0 0 0
1944	27431866 9301 104804 104804 0.1 50 500 0 0 0 0
1945	27441167 9301 104804 104804 0.1 50 500 0 0 0 0
1946	27450468 9301 104804 104804 0.1 50 500 0 0 0 0
1947	27459769 9301 104804 104804 0.1 50 500 0 0 0 0
1948	27469070 9301 104804 104804 0.1 50 500 0 0 0 0
1949	27478371 9301 104804 104804 0.1 50 500 0 0 0 0
1950	27487672 9301 104804 104804 0.1 50 500 0 0 0 0
1951	27496973 9301 104804 104804 0.1 50 500 0 0 0 0
1952	27506274 9301 104804 104804 0.1 50 500 0 0 0 0
1953	27515575 9301 104804 104804 0.1 50 500 0 0 0 0
1954	27524876 9301 104804 104804 0.1 50 500 0 0 0 0
1955	27534177 9301 104804 104804 0.1 50 500 0 0 0 0
1956	27543478 9301 104804 104804 0.1 50 500 0 0 0 0
1957	27552779 9301 104804 104804 0.1 50 500 0 0 0 0
1958	27562080 9301 104804 104804 0.1 50 500 0 0 0 0
1959	27571381 9301 104804 104804 0.1 50 500 0 0 0 0
1960	27580682 9301 104804 104804 0.1 50 500 0 0 0 0
1961	27589983 9301 104804 104804 0.1 50 500 0 0 0 0
1962	27599284 9301 104804 104804 0.1 50 500 0 0 0 0
1963	27608585 9301 104804 104804 0.1 50 500 0 0 0 0
1964	27617886 9301 104804 104804 0.1 50 500 0 0 0 0
1965	27627187 9301 104804 104804 0.1 50 500 0 0 0 0
1966	27636488 9301 104804 104804 0.1 50 500 0 0 0 0
1967	27645789 9301 104804 104804 0.1 50 500 0 0 0 0
1968	27655090 9301 104804 104804 0.1 50 500 0 0 0 0
1969	27664391 9301 104804 104804 0.1 50 500 0 0 0 0
1970	27673692 9301 104804 104804 0.1 50 500 0 0 0 0
1971	27682993 9301 104804 104804 0.1 50 500 0 0 0 0
1972	27692294 9301 104804 104804 0.1 50 500 0 0 0 0
1973	27701595 9301 104804 104804 0.1 50 500 0 0 0 0
1974	27710896 9301 104804 104804 0.1 50 500 0 0 0 0
1975	27720197 9301 104804 104804 0.1 50 500 0 0 0 0
1976	27729498 9301 104804 104804 0.1 50 500 0 0 0 0
1977	27738799 9301 104804 104804 0.1 50 500 0 0 0 0
1978	27748100 9301 104804 104804 0.1 50 500 0 0 0 0
1979	27757401 9301 104804 104804 0.1 50 500 0 0 0 0
1980	27766702 9301 104804 104804 0.1 50 500 0 0 0 0
1981	27776003 9301 104804 104804 0.1 50 500 0 0 0 0
1982	27785304 9301 104804 104804 0.1 50 500 0 0 0 0
1983	27794605 9301 104804 104804 0.1 50 500 0 0 0 0
1984	27803906 9301 104804 104804 0.1 50 500 0 0 0 0
1985	27813207 9301 104804 104804 0.1 50 500 0 0 0 0
1986	27822508 9301 104804 104804 0.1 50 500 0 0 0 0
1987	27831809 9301 104804 104804 0.1 50 500 0 0 0 0
1988	27841110 9301 104804 104804 0.1 50 500 0 0 0 0
1989	27850411 9301 104804 104804 0.1 50 500 0 0 0 0
1990	27859712 9301 104804 104804 0.1 50 500 0 0 0 0
1991	27869013 9301 104804 104804 0.1 50 500 0 0 0 0
1992	27878314 9301 104804 104804 0.1 50 500 0 0 0 0
1993	27887615 9301 104804 104804 0.1 50 500 0 0 0 0
1994	27896916 9301 104804 104804 0.1 50 500 0 0 0 0
1995	27906217 9301 104804 104804 0.1 50 500 0 0 0 0
1996	27915518 9301 104804 104804 0.1 50 500 0 0 0 0
1997	27924819 9301 104804 104804 0.1 50 500 0 0 0 0
1998	27934120 9301 104804 104804 0.1 50 500 0 0 0 0
1999	27943421 9301 104804 104804 0.1 50 500 0 0 0 0
2000	27952722 9301 104804 104804 0.1 50 500 0 0 0 0
2001	27962023 9301 104804 104804 0.1 50 500 0 0 0 0
2002	27971324 9301 104804 104804 0.1 50 500 0 0 0 0
2003	27980625 9301 104804 104804 0.1 50 500 0 0 0 0
2004	27989926 9301 104804 104804 0.1 50 500 0 0 0 0
2005	27999227 9301 104804 104804 0.1 50 500 0 0 0 0
2006	28008528 9301 104804 104804 0.1 50 500 0 0 0 0
2007	28017829 9301 104804 104804 0.1 50 500 0 0 0 0
2008	28027130 9301 104804 104804 0.1 50 500 0 0 0 0
2009	28036431 9301 104804 104804 0.1 50 500 0 0 0 0
2010	28045732 9301 104804 104804 0.1 50 500 0 0 0 0
2011	28055033 9301 104804 104804 0.1 50 500 0 0 0 0
2012	28064334 9301 104804 104804 0.1 50 500 0 0 0 0
2013	28073635 9301 104804 104804 0.1 50 500 0 0 0 0
2014	28082936 9301 104804 104804 0.1 50 500 0 0 0 0
2015	28092237 9301 104804 104804 0.1 50 500 0 0 0 0
2016	28101538 9301 104804 104804 0.1 50 500 0 0 0 0
2017	28110839 9301 104804 104804 0.1 50 500 0 0 0 0
2018	28120140 9301 104804 104804 0.1 50 500 0 0 0 0
2019	28129441 9301 104804 104804 0.1 50 500 0 0 0 0
2020	28138742 9301 104804 104804 0.1 50 500 0 0 0 0
2021	28148043 9301 104804 104804 0.1 50 500 0 0 0 0
2022	28157344 9301 104804 104804 0.1 50 500 0 0 0 0
2023	28166645 9301 104804 104804 0.1 50 500 0 0 0 0
2024	28175946 9301 104804 104804 0.1 50 500 0 0 0 0
2025	28185247 9301 104804 104804 0.1 50 500 0 0 0 0
2026	28194548 9301 104804 104804 0.1 50 500 0 0 0 0
2027	28203849 9301 104804 104804 0.1 50 500 0 0 0 0
2028	28213150 9301 104804 104804 0.1 50 500 0 0 0 0
2029	28222451 9301 104804 104804 0.1 50 500 0 0 0 0
2030	28231752 9301 104804 104804 0.1 50 500 0 0 0 0
2031	28241053 9301 104804 104804 0.1 50 500 0 0 0 0
2032	28250354 9301 104804 104804 0.1 50 500 0 0 0 0
2033	28259655 9301 104804 104804 0.1 50 500 0 0 0 0
2034	28268956 9301 104804 104804 0.1 50 500 0 0 0 0
2035	28278257 9301 104804 104804 0.1 50 500 0 0 0 0
2036	28287558 9301 104804 104804 0.1 50 500 0 0 0 0
2037	28296859 9301 104804 104804 0.1 50 500 0 0 0 0
2038	28306160 9301 104804 104804 0.1 50 500 0 0 0 0
2039	28315461 9301 104804 104804 0.1 50 500 0 0 0 0
2040	28324762 9301 104804 104804 0.1 50 500 0 0 0 0
2041	28334063 9301 104804 104804 0.1 50 500 0 0 0 0
2042	28343364 9301 104804 104804 0.1 50 500 0 0 0 0
2043	28352665 9301 104804 104804 0.1 50 500 0 0 0 0
2044	28361966 9301 104804 104804 0.1 50 500 0 0 0 0
2045	28371267 9301 104804 104804 0.1 50 500 0 0 0 0
2046	28380568 9301 104804 104804 0.1 50 500 0 0 0 0
2047	28389869 9301 104804 104804 0.1 50 500 0 0 0 0
2048	28399170 9301 104804 104804 0.1 50 500 0 0 0 0
2049	28408471 9301 104804 104804 0.1 50 500 0 0 0 0
2050	28417772 9301 104804 104804 0.1 50 500 0 0 0 0
2051	28427073 9301 104804 104804 0.1 50 500 0 0 0 0
2052	28436374 9301 104804 104804 0.1 50 500 0 0 0 0
2053	28445675 9301 104804 104804 0.1 50 500 0 0 0 0
2054	28454976 9301 104804 104804 0.1 50 500 0 0 0 0
2055	28464277 9301 104804 104804 0.1 50 500 0 0 0 0
2056	28473578 9301 104804 104804 0.1 50 500 0 0 0 0
2057	28482879 9301 104804 104804 0.1 50 500 0 0 0 0
2058	28492180 9301 104804 104804 0.1 50 500 0 0 0 0
2059	28501481 9301 104804 104804 0.1 50 500 0 0 0 0
2060	28510782 9301 104804 104804 0.1 50 500 0 0 0 0
2061	28520083 9301 104804 104804 0.1 50 500 0 0 0 0
2062	28529384 9301 104804 104804 0.1 50 500 0 0 0 0
2063	28538685 9301 104804 104804 0.1 50 500 0 0 0 0
2064	28547986 9301 104804 104804 0.1 50 500 0 0 0 0
2065	28557287 9301 104804 104804 0.1 50 500 0 0 0 0
2066	28566588 9301 104804 104804 0.1 50 500 0 0 0 0
2067	28575889 9301 104804 104804 0.1 50 500 0 0 0 0
2068	28585190 9301 104804 104804 0.1 50 500 0 0 0 0
2069	28594491 9301 104804 104804 0.1 50 500 0 0 0 0
2070	28603792 9301 104804 104804 0.1 50 500 0 0 0 0
2071	28613093 9301 104804 104804 0.1 50 500 0 0 0 0
2072	28622394 9301 104804 104804 0.1 50 500 0 0 0 0
2073	28631695 9301 104804 104804 0.1 50 500 0 0 0 0
2074	28640996 9301 104804 104804 0.1 50 500 0 0 0 0
2075	28650297 9301 104804 104804 0.1 50 500 0 0 0 0
2076	28659598 9301 104804 104804 0.1 50 500 0 0 0 0
2077	28668899 9301 104804 104804 0.1 50 500 0 0 0 0
2078	28678200 9301 104804 104804 0.1 50 500 0 0 0 0
2079	28687501 9301 104804 104804 0.1 50 500 0 0 0 0
2080	28696802 9301 104804 104804 0.1 50 500 0 0 0 0
2081	28706103 9301 104804 104804 0.1 50 500 0 0 0 0
2082	28715404 9301 104804 104804 0.1 50 500 0 0 0 0
2083	28724705 9301 104804 104804 0.1 50 500 0 0 0 0
2084	28734006 9301 104804 104804 0.1 50 500 0 0 0 0
2085	28743307 9301 104804 104804 0.1 50 500 0 0 0 0
2086	28752608 9301 104804 104804 0.1 50 500 0 0 0 0
2087	28761909 9301 104804 104804 0.1 50 500 0 0 0 0
2088	28771210 9301 104804 104804 0.1 50 500 0 0 0 0

