file 30026208 1736217063                                        
version 3
run DL3-0-20250106-23:30:53-653415
attr configname DL3
attr datetime 20250106-23:30:53
attr datetimef 20250106-233053
attr experiment DL3
attr inifile omnetpp.ini
attr iterationvars ""
attr iterationvarsd ""
attr iterationvarsf ""
attr measurement ""
attr network TimeSyncUEUE
attr processid 653415
attr repetition 0
attr replication #0
attr resultdir results
attr runnumber 0
attr seedset 0
config image-path ../../../inet4.5-2/images
config extends DL
config *.FGS.**.clock.typename IdealClock
config *.SwitchDN.clock.oscillator.typename RandomDriftOscillator
config **.clock.oscillator.typename ConstantDriftOscillator
config *.SwitchDN.clock.oscillator.driftRate -100ppm
config *.SwitchDN.clock.oscillator.changeInterval 12.5ms
config *.SwitchDN.clock.oscillator.driftRateChange "uniform(-10ppm, 10ppm)"
config *.*.clock.oscillator.driftRate 00ppm
config *.**.hasTimeSynchronization true
config *.SwitchDN.gptp.gptpNodeType "\"MASTER_NODE\""
config *.SwitchDN.gptp.masterPorts "[\"eth0\",\"eth1\"]"
config *.SwitchDN.gptp.slavePort "\"\""
config *.SwitchS*.gptp.slavePort "\"eth0\""
config *.SwitchS1.gptp.masterPorts "[\"eth1\",\"eth2\",\"eth3\",\"eth4\"]"
config *.SwitchS2.gptp.masterPorts "[\"eth1\",\"eth2\"]"
config *.SwitchS3.gptp.masterPorts "[\"eth1\",\"eth2\"]"
config *.FGS.nwtt[*].gptp.domain[*].slavePort "\"eth0\""
config *.FGS.nwtt[*].gptp.domain[*].masterPorts "[\"tt0\",\"tt1\",\"tt2\"]"
config *.FGS.dstt[*].gptp.domain[*].slavePort "\"tt0\""
config *.FGS.dstt[*].gptp.domain[*].masterPorts "[\"eth0\"]"
config **.referenceClock "\"SwitchDN.clock\""
config *.visualizer.dataLinkVisualizer[0].displayLinks true
config *.visualizer.dataLinkVisualizer[0].activityLevel "\"protocol\""
config *.visualizer.dataLinkVisualizer[0].packetFilter "\"GptpSync\""
config *.visualizer.dataLinkVisualizer[0].lineColor "\"blue2\""
config *.visualizer.numInfoVisualizers 1
config *.visualizer.infoVisualizer[0].modules "\"*.*.clock\""
config *.SwitchDN.clock.displayStringTextFormat "\"time: %T\""
config *.*.clock.displayStringTextFormat "\"diff: %d\""
config network TimeSyncUEUE
config num-rngs 1
config sim-time-limit 50s
config **.TSNAppsTableFile "xmldoc(\"config/app.xml\")"
config *.histogramContainer.histograms "{s1: \"../../../deterministic6g_data/PD-Wireless-5G-1/s1-UL_wall.xml\",\n\t\t\t\t\t\t\t\t\ts24: \"../../../deterministic6g_data/PD-Wireless-5G-1/s24-UL_wall.xml\",\n\t\t\t\t\t\t\t\t\ts3: \"../../../deterministic6g_data/PD-Wireless-5G-1/s3-UL_wall.xml\",\n\t\t\t\t\t\t\t\t\ts4: \"../../../deterministic6g_data/PD-Wireless-5G-1/s4-UL_wall.xml\",\n\t\t\t\t\t\t\t\t\ts6: \"../../../deterministic6g_data/PD-Wireless-5G-1/s6-UL_wall.xml\",\n\t\t\t\t\t\t\t\t\ts7: \"../../../deterministic6g_data/PD-Wireless-5G-1/s7-UL_wall.xml\",\n\t\t\t\t\t\t\t\t\ts8: \"../../../deterministic6g_data/PD-Wireless-5G-1/s8-UL_wall.xml\",\n\t\t\t\t\t\t\t\t\ts9: \"../../../deterministic6g_data/PD-Wireless-5G-1/s9-UL_wall.xml\",\n\t\t\t\t\t\t\t\t\ts10: \"../../../deterministic6g_data/PD-Wireless-5G-1/s10-DL_wall.xml\",\n\t\t\t\t\t\t\t\t\ts19: \"../../../deterministic6g_data/PD-Wireless-5G-1/s19-DL_wall.xml\",\n\t\t\t\t\t\t\t\t\ts20: \"../../../deterministic6g_data/PD-Wireless-5G-1/s20-UL_wall.xml\",\n\t\t\t\t\t\t\t\t\ts25: \"../../../deterministic6g_data/PD-Wireless-5G-1/s25-DL_wall.xml\",\n\t\t\t\t\t\t\t\t\ts26: \"../../../deterministic6g_data/PD-Wireless-5G-1/s26-UL_wall.xml\",\n\t\t\t\t\t\t\t\t\tgPTP: \"../../../deterministic6g_data/PD-Wireless-5G-1/gPTP_cut.xml\"}"
config *.FGS.d*.delayUplink "rngProvider(\"histogramContainer\",\"s1\")"
config *.FGS.n*.delayDownlink "rngProvider(\"histogramContainer\",\"s10\")"
config *.FGS.d*.delayD2D "rngProvider(\"histogramContainer\",\"s1\")"
config *.visualizer.typename IntegratedMultiCanvasVisualizer
config *.visualizer.infoVisualizer[*].displayInfos true

vector 0 TimeSyncUEUE.SwitchS1.eth[0].macLayer.queue queueLength:vector ETV
attr autoWarmupFilter false
attr interpolationmode sample-hold
attr recordingmode vector
attr source "warmup(atomic(constant0(packetPushEnded) + count(packetPushStarted) - count(packetPulled) - count(packetRemoved) - count(packetDropped)))"
attr title "queue length"
attr unit pk
vector 1 TimeSyncUEUE.SwitchS1.eth[0].macLayer.queue queueBitLength:vector ETV
attr autoWarmupFilter false
attr interpolationmode sample-hold
attr recordingmode vector
attr source "warmup(atomic(constant0(packetPushEnded) + sum(packetLength(packetPushStarted)) - sum(packetLength(packetPulled)) - sum(packetLength(packetRemoved)) - sum(packetLength(packetDropped))))"
attr title "queue bit length"
attr unit b
vector 2 TimeSyncUEUE.SwitchS1.eth[0].phyLayer.interFrameGapInserter interpacketGap:vector ETV
attr interpolationmode sample-hold
attr recordingmode vector
attr source "count(interpacketGapStarted) - count(interpacketGapEnded)"
attr title "interpacket gap state"
attr type int
vector 3 TimeSyncUEUE.SwitchS1.eth[0].phyLayer.transmitter transmitting:vector ETV
attr interpolationmode sample-hold
attr recordingmode vector
attr source "count(transmissionStarted) - count(transmissionEnded)"
attr title "transmitting state"
attr type int
vector 4 TimeSyncUEUE.SwitchS1.eth[1].macLayer.queue queueLength:vector ETV
attr autoWarmupFilter false
attr interpolationmode sample-hold
attr recordingmode vector
attr source "warmup(atomic(constant0(packetPushEnded) + count(packetPushStarted) - count(packetPulled) - count(packetRemoved) - count(packetDropped)))"
attr title "queue length"
attr unit pk
vector 5 TimeSyncUEUE.SwitchS1.eth[1].macLayer.queue queueBitLength:vector ETV
attr autoWarmupFilter false
attr interpolationmode sample-hold
attr recordingmode vector
attr source "warmup(atomic(constant0(packetPushEnded) + sum(packetLength(packetPushStarted)) - sum(packetLength(packetPulled)) - sum(packetLength(packetRemoved)) - sum(packetLength(packetDropped))))"
attr title "queue bit length"
attr unit b
vector 6 TimeSyncUEUE.SwitchS1.eth[1].phyLayer.interFrameGapInserter interpacketGap:vector ETV
attr interpolationmode sample-hold
attr recordingmode vector
attr source "count(interpacketGapStarted) - count(interpacketGapEnded)"
attr title "interpacket gap state"
attr type int
vector 7 TimeSyncUEUE.SwitchS1.eth[1].phyLayer.transmitter transmitting:vector ETV
attr interpolationmode sample-hold
attr recordingmode vector
attr source "count(transmissionStarted) - count(transmissionEnded)"
attr title "transmitting state"
attr type int
vector 8 TimeSyncUEUE.SwitchS1.eth[2].macLayer.queue queueLength:vector ETV
attr autoWarmupFilter false
attr interpolationmode sample-hold
attr recordingmode vector
attr source "warmup(atomic(constant0(packetPushEnded) + count(packetPushStarted) - count(packetPulled) - count(packetRemoved) - count(packetDropped)))"
attr title "queue length"
attr unit pk
vector 9 TimeSyncUEUE.SwitchS1.eth[2].macLayer.queue queueBitLength:vector ETV
attr autoWarmupFilter false
attr interpolationmode sample-hold
attr recordingmode vector
attr source "warmup(atomic(constant0(packetPushEnded) + sum(packetLength(packetPushStarted)) - sum(packetLength(packetPulled)) - sum(packetLength(packetRemoved)) - sum(packetLength(packetDropped))))"
attr title "queue bit length"
attr unit b
vector 10 TimeSyncUEUE.SwitchS1.eth[2].phyLayer.interFrameGapInserter interpacketGap:vector ETV
attr interpolationmode sample-hold
attr recordingmode vector
attr source "count(interpacketGapStarted) - count(interpacketGapEnded)"
attr title "interpacket gap state"
attr type int
vector 11 TimeSyncUEUE.SwitchS1.eth[2].phyLayer.transmitter transmitting:vector ETV
attr interpolationmode sample-hold
attr recordingmode vector
attr source "count(transmissionStarted) - count(transmissionEnded)"
attr title "transmitting state"
attr type int
vector 12 TimeSyncUEUE.SwitchS1.eth[3].macLayer.queue queueLength:vector ETV
attr autoWarmupFilter false
attr interpolationmode sample-hold
attr recordingmode vector
attr source "warmup(atomic(constant0(packetPushEnded) + count(packetPushStarted) - count(packetPulled) - count(packetRemoved) - count(packetDropped)))"
attr title "queue length"
attr unit pk
vector 13 TimeSyncUEUE.SwitchS1.eth[3].macLayer.queue queueBitLength:vector ETV
attr autoWarmupFilter false
attr interpolationmode sample-hold
attr recordingmode vector
attr source "warmup(atomic(constant0(packetPushEnded) + sum(packetLength(packetPushStarted)) - sum(packetLength(packetPulled)) - sum(packetLength(packetRemoved)) - sum(packetLength(packetDropped))))"
attr title "queue bit length"
attr unit b
vector 14 TimeSyncUEUE.SwitchS1.eth[3].phyLayer.interFrameGapInserter interpacketGap:vector ETV
attr interpolationmode sample-hold
attr recordingmode vector
attr source "count(interpacketGapStarted) - count(interpacketGapEnded)"
attr title "interpacket gap state"
attr type int
vector 15 TimeSyncUEUE.SwitchS1.eth[3].phyLayer.transmitter transmitting:vector ETV
attr interpolationmode sample-hold
attr recordingmode vector
attr source "count(transmissionStarted) - count(transmissionEnded)"
attr title "transmitting state"
attr type int
vector 16 TimeSyncUEUE.SwitchS1.eth[4].macLayer.queue queueLength:vector ETV
attr autoWarmupFilter false
attr interpolationmode sample-hold
attr recordingmode vector
attr source "warmup(atomic(constant0(packetPushEnded) + count(packetPushStarted) - count(packetPulled) - count(packetRemoved) - count(packetDropped)))"
attr title "queue length"
attr unit pk
vector 17 TimeSyncUEUE.SwitchS1.eth[4].macLayer.queue queueBitLength:vector ETV
attr autoWarmupFilter false
attr interpolationmode sample-hold
attr recordingmode vector
attr source "warmup(atomic(constant0(packetPushEnded) + sum(packetLength(packetPushStarted)) - sum(packetLength(packetPulled)) - sum(packetLength(packetRemoved)) - sum(packetLength(packetDropped))))"
attr title "queue bit length"
attr unit b
vector 18 TimeSyncUEUE.SwitchS1.eth[4].phyLayer.interFrameGapInserter interpacketGap:vector ETV
attr interpolationmode sample-hold
attr recordingmode vector
attr source "count(interpacketGapStarted) - count(interpacketGapEnded)"
attr title "interpacket gap state"
attr type int
vector 19 TimeSyncUEUE.SwitchS1.eth[4].phyLayer.transmitter transmitting:vector ETV
attr interpolationmode sample-hold
attr recordingmode vector
attr source "count(transmissionStarted) - count(transmissionEnded)"
attr title "transmitting state"
attr type int
vector 20 TimeSyncUEUE.SensorS1.eth[0].macLayer.queue queueLength:vector ETV
attr autoWarmupFilter false
attr interpolationmode sample-hold
attr recordingmode vector
attr source "warmup(atomic(constant0(packetPushEnded) + count(packetPushStarted) - count(packetPulled) - count(packetRemoved) - count(packetDropped)))"
attr title "queue length"
attr unit pk
vector 21 TimeSyncUEUE.SensorS1.eth[0].macLayer.queue queueBitLength:vector ETV
attr autoWarmupFilter false
attr interpolationmode sample-hold
attr recordingmode vector
attr source "warmup(atomic(constant0(packetPushEnded) + sum(packetLength(packetPushStarted)) - sum(packetLength(packetPulled)) - sum(packetLength(packetRemoved)) - sum(packetLength(packetDropped))))"
attr title "queue bit length"
attr unit b
vector 22 TimeSyncUEUE.SensorS1.eth[0].phyLayer.interFrameGapInserter interpacketGap:vector ETV
attr interpolationmode sample-hold
attr recordingmode vector
attr source "count(interpacketGapStarted) - count(interpacketGapEnded)"
attr title "interpacket gap state"
attr type int
vector 23 TimeSyncUEUE.SensorS1.eth[0].phyLayer.transmitter transmitting:vector ETV
attr interpolationmode sample-hold
attr recordingmode vector
attr source "count(transmissionStarted) - count(transmissionEnded)"
attr title "transmitting state"
attr type int
vector 24 TimeSyncUEUE.SensorS1.udp passedUpPk:vector(count) ETV
attr interpolationmode none
attr recordingmode vector(count)
attr source packetSentToUpper
attr title "packets passed up, count"
vector 25 TimeSyncUEUE.SensorS1.udp droppedPkWrongPort:vector(count) ETV
attr interpolationmode none
attr recordingmode vector(count)
attr source packetDropReasonIsNoPortFound(packetDropped)
attr title "packets dropped (wrong port), count"
vector 26 TimeSyncUEUE.SensorS1.udp droppedPkBadChecksum:vector(count) ETV
attr interpolationmode none
attr recordingmode vector(count)
attr source packetDropReasonIsIncorrectlyReceived(packetDropped)
attr title "packets dropped (checksum error), count"
vector 27 TimeSyncUEUE.CameraS1.eth[0].macLayer.queue queueLength:vector ETV
attr autoWarmupFilter false
attr interpolationmode sample-hold
attr recordingmode vector
attr source "warmup(atomic(constant0(packetPushEnded) + count(packetPushStarted) - count(packetPulled) - count(packetRemoved) - count(packetDropped)))"
attr title "queue length"
attr unit pk
vector 28 TimeSyncUEUE.CameraS1.eth[0].macLayer.queue queueBitLength:vector ETV
attr autoWarmupFilter false
attr interpolationmode sample-hold
attr recordingmode vector
attr source "warmup(atomic(constant0(packetPushEnded) + sum(packetLength(packetPushStarted)) - sum(packetLength(packetPulled)) - sum(packetLength(packetRemoved)) - sum(packetLength(packetDropped))))"
attr title "queue bit length"
attr unit b
vector 29 TimeSyncUEUE.CameraS1.eth[0].phyLayer.interFrameGapInserter interpacketGap:vector ETV
attr interpolationmode sample-hold
attr recordingmode vector
attr source "count(interpacketGapStarted) - count(interpacketGapEnded)"
attr title "interpacket gap state"
attr type int
vector 30 TimeSyncUEUE.CameraS1.eth[0].phyLayer.transmitter transmitting:vector ETV
attr interpolationmode sample-hold
attr recordingmode vector
attr source "count(transmissionStarted) - count(transmissionEnded)"
attr title "transmitting state"
attr type int
vector 31 TimeSyncUEUE.CameraS1.udp passedUpPk:vector(count) ETV
attr interpolationmode none
attr recordingmode vector(count)
attr source packetSentToUpper
attr title "packets passed up, count"
vector 32 TimeSyncUEUE.CameraS1.udp droppedPkWrongPort:vector(count) ETV
attr interpolationmode none
attr recordingmode vector(count)
attr source packetDropReasonIsNoPortFound(packetDropped)
attr title "packets dropped (wrong port), count"
vector 33 TimeSyncUEUE.CameraS1.udp droppedPkBadChecksum:vector(count) ETV
attr interpolationmode none
attr recordingmode vector(count)
attr source packetDropReasonIsIncorrectlyReceived(packetDropped)
attr title "packets dropped (checksum error), count"
vector 34 TimeSyncUEUE.EsteiraS1.eth[0].macLayer.queue queueLength:vector ETV
attr autoWarmupFilter false
attr interpolationmode sample-hold
attr recordingmode vector
attr source "warmup(atomic(constant0(packetPushEnded) + count(packetPushStarted) - count(packetPulled) - count(packetRemoved) - count(packetDropped)))"
attr title "queue length"
attr unit pk
vector 35 TimeSyncUEUE.EsteiraS1.eth[0].macLayer.queue queueBitLength:vector ETV
attr autoWarmupFilter false
attr interpolationmode sample-hold
attr recordingmode vector
attr source "warmup(atomic(constant0(packetPushEnded) + sum(packetLength(packetPushStarted)) - sum(packetLength(packetPulled)) - sum(packetLength(packetRemoved)) - sum(packetLength(packetDropped))))"
attr title "queue bit length"
attr unit b
vector 36 TimeSyncUEUE.EsteiraS1.eth[0].phyLayer.interFrameGapInserter interpacketGap:vector ETV
attr interpolationmode sample-hold
attr recordingmode vector
attr source "count(interpacketGapStarted) - count(interpacketGapEnded)"
attr title "interpacket gap state"
attr type int
vector 37 TimeSyncUEUE.EsteiraS1.eth[0].phyLayer.transmitter transmitting:vector ETV
attr interpolationmode sample-hold
attr recordingmode vector
attr source "count(transmissionStarted) - count(transmissionEnded)"
attr title "transmitting state"
attr type int
vector 38 TimeSyncUEUE.EsteiraS1.udp passedUpPk:vector(count) ETV
attr interpolationmode none
attr recordingmode vector(count)
attr source packetSentToUpper
attr title "packets passed up, count"
vector 39 TimeSyncUEUE.EsteiraS1.udp droppedPkWrongPort:vector(count) ETV
attr interpolationmode none
attr recordingmode vector(count)
attr source packetDropReasonIsNoPortFound(packetDropped)
attr title "packets dropped (wrong port), count"
vector 40 TimeSyncUEUE.EsteiraS1.udp droppedPkBadChecksum:vector(count) ETV
attr interpolationmode none
attr recordingmode vector(count)
attr source packetDropReasonIsIncorrectlyReceived(packetDropped)
attr title "packets dropped (checksum error), count"
vector 41 TimeSyncUEUE.RoboS1.eth[0].macLayer.queue queueLength:vector ETV
attr autoWarmupFilter false
attr interpolationmode sample-hold
attr recordingmode vector
attr source "warmup(atomic(constant0(packetPushEnded) + count(packetPushStarted) - count(packetPulled) - count(packetRemoved) - count(packetDropped)))"
attr title "queue length"
attr unit pk
vector 42 TimeSyncUEUE.RoboS1.eth[0].macLayer.queue queueBitLength:vector ETV
attr autoWarmupFilter false
attr interpolationmode sample-hold
attr recordingmode vector
attr source "warmup(atomic(constant0(packetPushEnded) + sum(packetLength(packetPushStarted)) - sum(packetLength(packetPulled)) - sum(packetLength(packetRemoved)) - sum(packetLength(packetDropped))))"
attr title "queue bit length"
attr unit b
vector 43 TimeSyncUEUE.RoboS1.eth[0].phyLayer.interFrameGapInserter interpacketGap:vector ETV
attr interpolationmode sample-hold
attr recordingmode vector
attr source "count(interpacketGapStarted) - count(interpacketGapEnded)"
attr title "interpacket gap state"
attr type int
vector 44 TimeSyncUEUE.RoboS1.eth[0].phyLayer.transmitter transmitting:vector ETV
attr interpolationmode sample-hold
attr recordingmode vector
attr source "count(transmissionStarted) - count(transmissionEnded)"
attr title "transmitting state"
attr type int
vector 45 TimeSyncUEUE.RoboS1.udp passedUpPk:vector(count) ETV
attr interpolationmode none
attr recordingmode vector(count)
attr source packetSentToUpper
attr title "packets passed up, count"
vector 46 TimeSyncUEUE.RoboS1.udp droppedPkWrongPort:vector(count) ETV
attr interpolationmode none
attr recordingmode vector(count)
attr source packetDropReasonIsNoPortFound(packetDropped)
attr title "packets dropped (wrong port), count"
vector 47 TimeSyncUEUE.RoboS1.udp droppedPkBadChecksum:vector(count) ETV
attr interpolationmode none
attr recordingmode vector(count)
attr source packetDropReasonIsIncorrectlyReceived(packetDropped)
attr title "packets dropped (checksum error), count"
vector 48 TimeSyncUEUE.SwitchS2.eth[0].macLayer.queue queueLength:vector ETV
attr autoWarmupFilter false
attr interpolationmode sample-hold
attr recordingmode vector
attr source "warmup(atomic(constant0(packetPushEnded) + count(packetPushStarted) - count(packetPulled) - count(packetRemoved) - count(packetDropped)))"
attr title "queue length"
attr unit pk
vector 49 TimeSyncUEUE.SwitchS2.eth[0].macLayer.queue queueBitLength:vector ETV
attr autoWarmupFilter false
attr interpolationmode sample-hold
attr recordingmode vector
attr source "warmup(atomic(constant0(packetPushEnded) + sum(packetLength(packetPushStarted)) - sum(packetLength(packetPulled)) - sum(packetLength(packetRemoved)) - sum(packetLength(packetDropped))))"
attr title "queue bit length"
attr unit b
vector 50 TimeSyncUEUE.SwitchS2.eth[0].phyLayer.interFrameGapInserter interpacketGap:vector ETV
attr interpolationmode sample-hold
attr recordingmode vector
attr source "count(interpacketGapStarted) - count(interpacketGapEnded)"
attr title "interpacket gap state"
attr type int
vector 51 TimeSyncUEUE.SwitchS2.eth[0].phyLayer.transmitter transmitting:vector ETV
attr interpolationmode sample-hold
attr recordingmode vector
attr source "count(transmissionStarted) - count(transmissionEnded)"
attr title "transmitting state"
attr type int
vector 52 TimeSyncUEUE.SwitchS2.eth[1].macLayer.queue queueLength:vector ETV
attr autoWarmupFilter false
attr interpolationmode sample-hold
attr recordingmode vector
attr source "warmup(atomic(constant0(packetPushEnded) + count(packetPushStarted) - count(packetPulled) - count(packetRemoved) - count(packetDropped)))"
attr title "queue length"
attr unit pk
vector 53 TimeSyncUEUE.SwitchS2.eth[1].macLayer.queue queueBitLength:vector ETV
attr autoWarmupFilter false
attr interpolationmode sample-hold
attr recordingmode vector
attr source "warmup(atomic(constant0(packetPushEnded) + sum(packetLength(packetPushStarted)) - sum(packetLength(packetPulled)) - sum(packetLength(packetRemoved)) - sum(packetLength(packetDropped))))"
attr title "queue bit length"
attr unit b
vector 54 TimeSyncUEUE.SwitchS2.eth[1].phyLayer.interFrameGapInserter interpacketGap:vector ETV
attr interpolationmode sample-hold
attr recordingmode vector
attr source "count(interpacketGapStarted) - count(interpacketGapEnded)"
attr title "interpacket gap state"
attr type int
vector 55 TimeSyncUEUE.SwitchS2.eth[1].phyLayer.transmitter transmitting:vector ETV
attr interpolationmode sample-hold
attr recordingmode vector
attr source "count(transmissionStarted) - count(transmissionEnded)"
attr title "transmitting state"
attr type int
vector 56 TimeSyncUEUE.SwitchS2.eth[2].macLayer.queue queueLength:vector ETV
attr autoWarmupFilter false
attr interpolationmode sample-hold
attr recordingmode vector
attr source "warmup(atomic(constant0(packetPushEnded) + count(packetPushStarted) - count(packetPulled) - count(packetRemoved) - count(packetDropped)))"
attr title "queue length"
attr unit pk
vector 57 TimeSyncUEUE.SwitchS2.eth[2].macLayer.queue queueBitLength:vector ETV
attr autoWarmupFilter false
attr interpolationmode sample-hold
attr recordingmode vector
attr source "warmup(atomic(constant0(packetPushEnded) + sum(packetLength(packetPushStarted)) - sum(packetLength(packetPulled)) - sum(packetLength(packetRemoved)) - sum(packetLength(packetDropped))))"
attr title "queue bit length"
attr unit b
vector 58 TimeSyncUEUE.SwitchS2.eth[2].phyLayer.interFrameGapInserter interpacketGap:vector ETV
attr interpolationmode sample-hold
attr recordingmode vector
attr source "count(interpacketGapStarted) - count(interpacketGapEnded)"
attr title "interpacket gap state"
attr type int
vector 59 TimeSyncUEUE.SwitchS2.eth[2].phyLayer.transmitter transmitting:vector ETV
attr interpolationmode sample-hold
attr recordingmode vector
attr source "count(transmissionStarted) - count(transmissionEnded)"
attr title "transmitting state"
attr type int
vector 60 TimeSyncUEUE.EsteiraS2.eth[0].macLayer.queue queueLength:vector ETV
attr autoWarmupFilter false
attr interpolationmode sample-hold
attr recordingmode vector
attr source "warmup(atomic(constant0(packetPushEnded) + count(packetPushStarted) - count(packetPulled) - count(packetRemoved) - count(packetDropped)))"
attr title "queue length"
attr unit pk
vector 61 TimeSyncUEUE.EsteiraS2.eth[0].macLayer.queue queueBitLength:vector ETV
attr autoWarmupFilter false
attr interpolationmode sample-hold
attr recordingmode vector
attr source "warmup(atomic(constant0(packetPushEnded) + sum(packetLength(packetPushStarted)) - sum(packetLength(packetPulled)) - sum(packetLength(packetRemoved)) - sum(packetLength(packetDropped))))"
attr title "queue bit length"
attr unit b
vector 62 TimeSyncUEUE.EsteiraS2.eth[0].phyLayer.interFrameGapInserter interpacketGap:vector ETV
attr interpolationmode sample-hold
attr recordingmode vector
attr source "count(interpacketGapStarted) - count(interpacketGapEnded)"
attr title "interpacket gap state"
attr type int
vector 63 TimeSyncUEUE.EsteiraS2.eth[0].phyLayer.transmitter transmitting:vector ETV
attr interpolationmode sample-hold
attr recordingmode vector
attr source "count(transmissionStarted) - count(transmissionEnded)"
attr title "transmitting state"
attr type int
vector 64 TimeSyncUEUE.EsteiraS2.udp passedUpPk:vector(count) ETV
attr interpolationmode none
attr recordingmode vector(count)
attr source packetSentToUpper
attr title "packets passed up, count"
vector 65 TimeSyncUEUE.EsteiraS2.udp droppedPkWrongPort:vector(count) ETV
attr interpolationmode none
attr recordingmode vector(count)
attr source packetDropReasonIsNoPortFound(packetDropped)
attr title "packets dropped (wrong port), count"
vector 66 TimeSyncUEUE.EsteiraS2.udp droppedPkBadChecksum:vector(count) ETV
attr interpolationmode none
attr recordingmode vector(count)
attr source packetDropReasonIsIncorrectlyReceived(packetDropped)
attr title "packets dropped (checksum error), count"
vector 67 TimeSyncUEUE.RoboS2.eth[0].macLayer.queue queueLength:vector ETV
attr autoWarmupFilter false
attr interpolationmode sample-hold
attr recordingmode vector
attr source "warmup(atomic(constant0(packetPushEnded) + count(packetPushStarted) - count(packetPulled) - count(packetRemoved) - count(packetDropped)))"
attr title "queue length"
attr unit pk
vector 68 TimeSyncUEUE.RoboS2.eth[0].macLayer.queue queueBitLength:vector ETV
attr autoWarmupFilter false
attr interpolationmode sample-hold
attr recordingmode vector
attr source "warmup(atomic(constant0(packetPushEnded) + sum(packetLength(packetPushStarted)) - sum(packetLength(packetPulled)) - sum(packetLength(packetRemoved)) - sum(packetLength(packetDropped))))"
attr title "queue bit length"
attr unit b
vector 69 TimeSyncUEUE.RoboS2.eth[0].phyLayer.interFrameGapInserter interpacketGap:vector ETV
attr interpolationmode sample-hold
attr recordingmode vector
attr source "count(interpacketGapStarted) - count(interpacketGapEnded)"
attr title "interpacket gap state"
attr type int
vector 70 TimeSyncUEUE.RoboS2.eth[0].phyLayer.transmitter transmitting:vector ETV
attr interpolationmode sample-hold
attr recordingmode vector
attr source "count(transmissionStarted) - count(transmissionEnded)"
attr title "transmitting state"
attr type int
vector 71 TimeSyncUEUE.RoboS2.udp passedUpPk:vector(count) ETV
attr interpolationmode none
attr recordingmode vector(count)
attr source packetSentToUpper
attr title "packets passed up, count"
vector 72 TimeSyncUEUE.RoboS2.udp droppedPkWrongPort:vector(count) ETV
attr interpolationmode none
attr recordingmode vector(count)
attr source packetDropReasonIsNoPortFound(packetDropped)
attr title "packets dropped (wrong port), count"
vector 73 TimeSyncUEUE.RoboS2.udp droppedPkBadChecksum:vector(count) ETV
attr interpolationmode none
attr recordingmode vector(count)
attr source packetDropReasonIsIncorrectlyReceived(packetDropped)
attr title "packets dropped (checksum error), count"
vector 74 TimeSyncUEUE.SwitchS3.eth[0].macLayer.queue queueLength:vector ETV
attr autoWarmupFilter false
attr interpolationmode sample-hold
attr recordingmode vector
attr source "warmup(atomic(constant0(packetPushEnded) + count(packetPushStarted) - count(packetPulled) - count(packetRemoved) - count(packetDropped)))"
attr title "queue length"
attr unit pk
vector 75 TimeSyncUEUE.SwitchS3.eth[0].macLayer.queue queueBitLength:vector ETV
attr autoWarmupFilter false
attr interpolationmode sample-hold
attr recordingmode vector
attr source "warmup(atomic(constant0(packetPushEnded) + sum(packetLength(packetPushStarted)) - sum(packetLength(packetPulled)) - sum(packetLength(packetRemoved)) - sum(packetLength(packetDropped))))"
attr title "queue bit length"
attr unit b
vector 76 TimeSyncUEUE.SwitchS3.eth[0].phyLayer.interFrameGapInserter interpacketGap:vector ETV
attr interpolationmode sample-hold
attr recordingmode vector
attr source "count(interpacketGapStarted) - count(interpacketGapEnded)"
attr title "interpacket gap state"
attr type int
vector 77 TimeSyncUEUE.SwitchS3.eth[0].phyLayer.transmitter transmitting:vector ETV
attr interpolationmode sample-hold
attr recordingmode vector
attr source "count(transmissionStarted) - count(transmissionEnded)"
attr title "transmitting state"
attr type int
vector 78 TimeSyncUEUE.SwitchS3.eth[1].macLayer.queue queueLength:vector ETV
attr autoWarmupFilter false
attr interpolationmode sample-hold
attr recordingmode vector
attr source "warmup(atomic(constant0(packetPushEnded) + count(packetPushStarted) - count(packetPulled) - count(packetRemoved) - count(packetDropped)))"
attr title "queue length"
attr unit pk
vector 79 TimeSyncUEUE.SwitchS3.eth[1].macLayer.queue queueBitLength:vector ETV
attr autoWarmupFilter false
attr interpolationmode sample-hold
attr recordingmode vector
attr source "warmup(atomic(constant0(packetPushEnded) + sum(packetLength(packetPushStarted)) - sum(packetLength(packetPulled)) - sum(packetLength(packetRemoved)) - sum(packetLength(packetDropped))))"
attr title "queue bit length"
attr unit b
vector 80 TimeSyncUEUE.SwitchS3.eth[1].phyLayer.interFrameGapInserter interpacketGap:vector ETV
attr interpolationmode sample-hold
attr recordingmode vector
attr source "count(interpacketGapStarted) - count(interpacketGapEnded)"
attr title "interpacket gap state"
attr type int
vector 81 TimeSyncUEUE.SwitchS3.eth[1].phyLayer.transmitter transmitting:vector ETV
attr interpolationmode sample-hold
attr recordingmode vector
attr source "count(transmissionStarted) - count(transmissionEnded)"
attr title "transmitting state"
attr type int
vector 82 TimeSyncUEUE.SwitchS3.eth[2].macLayer.queue queueLength:vector ETV
attr autoWarmupFilter false
attr interpolationmode sample-hold
attr recordingmode vector
attr source "warmup(atomic(constant0(packetPushEnded) + count(packetPushStarted) - count(packetPulled) - count(packetRemoved) - count(packetDropped)))"
attr title "queue length"
attr unit pk
vector 83 TimeSyncUEUE.SwitchS3.eth[2].macLayer.queue queueBitLength:vector ETV
attr autoWarmupFilter false
attr interpolationmode sample-hold
attr recordingmode vector
attr source "warmup(atomic(constant0(packetPushEnded) + sum(packetLength(packetPushStarted)) - sum(packetLength(packetPulled)) - sum(packetLength(packetRemoved)) - sum(packetLength(packetDropped))))"
attr title "queue bit length"
attr unit b
vector 84 TimeSyncUEUE.SwitchS3.eth[2].phyLayer.interFrameGapInserter interpacketGap:vector ETV
attr interpolationmode sample-hold
attr recordingmode vector
attr source "count(interpacketGapStarted) - count(interpacketGapEnded)"
attr title "interpacket gap state"
attr type int
vector 85 TimeSyncUEUE.SwitchS3.eth[2].phyLayer.transmitter transmitting:vector ETV
attr interpolationmode sample-hold
attr recordingmode vector
attr source "count(transmissionStarted) - count(transmissionEnded)"
attr title "transmitting state"
attr type int
vector 86 TimeSyncUEUE.SensorS3.eth[0].macLayer.queue queueLength:vector ETV
attr autoWarmupFilter false
attr interpolationmode sample-hold
attr recordingmode vector
attr source "warmup(atomic(constant0(packetPushEnded) + count(packetPushStarted) - count(packetPulled) - count(packetRemoved) - count(packetDropped)))"
attr title "queue length"
attr unit pk
vector 87 TimeSyncUEUE.SensorS3.eth[0].macLayer.queue queueBitLength:vector ETV
attr autoWarmupFilter false
attr interpolationmode sample-hold
attr recordingmode vector
attr source "warmup(atomic(constant0(packetPushEnded) + sum(packetLength(packetPushStarted)) - sum(packetLength(packetPulled)) - sum(packetLength(packetRemoved)) - sum(packetLength(packetDropped))))"
attr title "queue bit length"
attr unit b
vector 88 TimeSyncUEUE.SensorS3.eth[0].phyLayer.interFrameGapInserter interpacketGap:vector ETV
attr interpolationmode sample-hold
attr recordingmode vector
attr source "count(interpacketGapStarted) - count(interpacketGapEnded)"
attr title "interpacket gap state"
attr type int
vector 89 TimeSyncUEUE.SensorS3.eth[0].phyLayer.transmitter transmitting:vector ETV
attr interpolationmode sample-hold
attr recordingmode vector
attr source "count(transmissionStarted) - count(transmissionEnded)"
attr title "transmitting state"
attr type int
vector 90 TimeSyncUEUE.SensorS3.udp passedUpPk:vector(count) ETV
attr interpolationmode none
attr recordingmode vector(count)
attr source packetSentToUpper
attr title "packets passed up, count"
vector 91 TimeSyncUEUE.SensorS3.udp droppedPkWrongPort:vector(count) ETV
attr interpolationmode none
attr recordingmode vector(count)
attr source packetDropReasonIsNoPortFound(packetDropped)
attr title "packets dropped (wrong port), count"
vector 92 TimeSyncUEUE.SensorS3.udp droppedPkBadChecksum:vector(count) ETV
attr interpolationmode none
attr recordingmode vector(count)
attr source packetDropReasonIsIncorrectlyReceived(packetDropped)
attr title "packets dropped (checksum error), count"
vector 93 TimeSyncUEUE.EsteiraS3.eth[0].macLayer.queue queueLength:vector ETV
attr autoWarmupFilter false
attr interpolationmode sample-hold
attr recordingmode vector
attr source "warmup(atomic(constant0(packetPushEnded) + count(packetPushStarted) - count(packetPulled) - count(packetRemoved) - count(packetDropped)))"
attr title "queue length"
attr unit pk
vector 94 TimeSyncUEUE.EsteiraS3.eth[0].macLayer.queue queueBitLength:vector ETV
attr autoWarmupFilter false
attr interpolationmode sample-hold
attr recordingmode vector
attr source "warmup(atomic(constant0(packetPushEnded) + sum(packetLength(packetPushStarted)) - sum(packetLength(packetPulled)) - sum(packetLength(packetRemoved)) - sum(packetLength(packetDropped))))"
attr title "queue bit length"
attr unit b
vector 95 TimeSyncUEUE.EsteiraS3.eth[0].phyLayer.interFrameGapInserter interpacketGap:vector ETV
attr interpolationmode sample-hold
attr recordingmode vector
attr source "count(interpacketGapStarted) - count(interpacketGapEnded)"
attr title "interpacket gap state"
attr type int
vector 96 TimeSyncUEUE.EsteiraS3.eth[0].phyLayer.transmitter transmitting:vector ETV
attr interpolationmode sample-hold
attr recordingmode vector
attr source "count(transmissionStarted) - count(transmissionEnded)"
attr title "transmitting state"
attr type int
vector 97 TimeSyncUEUE.EsteiraS3.udp passedUpPk:vector(count) ETV
attr interpolationmode none
attr recordingmode vector(count)
attr source packetSentToUpper
attr title "packets passed up, count"
vector 98 TimeSyncUEUE.EsteiraS3.udp droppedPkWrongPort:vector(count) ETV
attr interpolationmode none
attr recordingmode vector(count)
attr source packetDropReasonIsNoPortFound(packetDropped)
attr title "packets dropped (wrong port), count"
vector 99 TimeSyncUEUE.EsteiraS3.udp droppedPkBadChecksum:vector(count) ETV
attr interpolationmode none
attr recordingmode vector(count)
attr source packetDropReasonIsIncorrectlyReceived(packetDropped)
attr title "packets dropped (checksum error), count"
vector 100 TimeSyncUEUE.SwitchDN.eth[0].macLayer.queue queueLength:vector ETV
attr autoWarmupFilter false
attr interpolationmode sample-hold
attr recordingmode vector
attr source "warmup(atomic(constant0(packetPushEnded) + count(packetPushStarted) - count(packetPulled) - count(packetRemoved) - count(packetDropped)))"
attr title "queue length"
attr unit pk
vector 101 TimeSyncUEUE.SwitchDN.eth[0].macLayer.queue queueBitLength:vector ETV
attr autoWarmupFilter false
attr interpolationmode sample-hold
attr recordingmode vector
attr source "warmup(atomic(constant0(packetPushEnded) + sum(packetLength(packetPushStarted)) - sum(packetLength(packetPulled)) - sum(packetLength(packetRemoved)) - sum(packetLength(packetDropped))))"
attr title "queue bit length"
attr unit b
vector 102 TimeSyncUEUE.SwitchDN.eth[0].phyLayer.interFrameGapInserter interpacketGap:vector ETV
attr interpolationmode sample-hold
attr recordingmode vector
attr source "count(interpacketGapStarted) - count(interpacketGapEnded)"
attr title "interpacket gap state"
attr type int
vector 103 TimeSyncUEUE.SwitchDN.eth[0].phyLayer.transmitter transmitting:vector ETV
attr interpolationmode sample-hold
attr recordingmode vector
attr source "count(transmissionStarted) - count(transmissionEnded)"
attr title "transmitting state"
attr type int
vector 104 TimeSyncUEUE.SwitchDN.eth[1].macLayer.queue queueLength:vector ETV
attr autoWarmupFilter false
attr interpolationmode sample-hold
attr recordingmode vector
attr source "warmup(atomic(constant0(packetPushEnded) + count(packetPushStarted) - count(packetPulled) - count(packetRemoved) - count(packetDropped)))"
attr title "queue length"
attr unit pk
vector 105 TimeSyncUEUE.SwitchDN.eth[1].macLayer.queue queueBitLength:vector ETV
attr autoWarmupFilter false
attr interpolationmode sample-hold
attr recordingmode vector
attr source "warmup(atomic(constant0(packetPushEnded) + sum(packetLength(packetPushStarted)) - sum(packetLength(packetPulled)) - sum(packetLength(packetRemoved)) - sum(packetLength(packetDropped))))"
attr title "queue bit length"
attr unit b
vector 106 TimeSyncUEUE.SwitchDN.eth[1].phyLayer.interFrameGapInserter interpacketGap:vector ETV
attr interpolationmode sample-hold
attr recordingmode vector
attr source "count(interpacketGapStarted) - count(interpacketGapEnded)"
attr title "interpacket gap state"
attr type int
vector 107 TimeSyncUEUE.SwitchDN.eth[1].phyLayer.transmitter transmitting:vector ETV
attr interpolationmode sample-hold
attr recordingmode vector
attr source "count(transmissionStarted) - count(transmissionEnded)"
attr title "transmitting state"
attr type int
vector 108 TimeSyncUEUE.PLC.eth[0].macLayer.queue queueLength:vector ETV
attr autoWarmupFilter false
attr interpolationmode sample-hold
attr recordingmode vector
attr source "warmup(atomic(constant0(packetPushEnded) + count(packetPushStarted) - count(packetPulled) - count(packetRemoved) - count(packetDropped)))"
attr title "queue length"
attr unit pk
vector 109 TimeSyncUEUE.PLC.eth[0].macLayer.queue queueBitLength:vector ETV
attr autoWarmupFilter false
attr interpolationmode sample-hold
attr recordingmode vector
attr source "warmup(atomic(constant0(packetPushEnded) + sum(packetLength(packetPushStarted)) - sum(packetLength(packetPulled)) - sum(packetLength(packetRemoved)) - sum(packetLength(packetDropped))))"
attr title "queue bit length"
attr unit b
vector 110 TimeSyncUEUE.PLC.eth[0].phyLayer.interFrameGapInserter interpacketGap:vector ETV
attr interpolationmode sample-hold
attr recordingmode vector
attr source "count(interpacketGapStarted) - count(interpacketGapEnded)"
attr title "interpacket gap state"
attr type int
vector 111 TimeSyncUEUE.PLC.eth[0].phyLayer.transmitter transmitting:vector ETV
attr interpolationmode sample-hold
attr recordingmode vector
attr source "count(transmissionStarted) - count(transmissionEnded)"
attr title "transmitting state"
attr type int
vector 112 TimeSyncUEUE.PLC.udp passedUpPk:vector(count) ETV
attr interpolationmode none
attr recordingmode vector(count)
attr source packetSentToUpper
attr title "packets passed up, count"
vector 113 TimeSyncUEUE.PLC.udp droppedPkWrongPort:vector(count) ETV
attr interpolationmode none
attr recordingmode vector(count)
attr source packetDropReasonIsNoPortFound(packetDropped)
attr title "packets dropped (wrong port), count"
vector 114 TimeSyncUEUE.PLC.udp droppedPkBadChecksum:vector(count) ETV
attr interpolationmode none
attr recordingmode vector(count)
attr source packetDropReasonIsIncorrectlyReceived(packetDropped)
attr title "packets dropped (checksum error), count"
vector 115 TimeSyncUEUE.FGS.dstt[0].clock timeChanged:vector ETV
attr interpolationmode linear
attr recordingmode vector
attr title "Clock time"
vector 116 TimeSyncUEUE.FGS.dstt[0].eth[0].clock timeChanged:vector ETV
attr interpolationmode linear
attr recordingmode vector
attr title "Clock time"
vector 117 TimeSyncUEUE.FGS.dstt[0].eth[0].macLayer.queue queueLength:vector ETV
attr autoWarmupFilter false
attr interpolationmode sample-hold
attr recordingmode vector
attr source "warmup(atomic(constant0(packetPushEnded) + count(packetPushStarted) - count(packetPulled) - count(packetRemoved) - count(packetDropped)))"
attr title "queue length"
attr unit pk
vector 118 TimeSyncUEUE.FGS.dstt[0].eth[0].macLayer.queue queueBitLength:vector ETV
attr autoWarmupFilter false
attr interpolationmode sample-hold
attr recordingmode vector
attr source "warmup(atomic(constant0(packetPushEnded) + sum(packetLength(packetPushStarted)) - sum(packetLength(packetPulled)) - sum(packetLength(packetRemoved)) - sum(packetLength(packetDropped))))"
attr title "queue bit length"
attr unit b
vector 119 TimeSyncUEUE.FGS.dstt[0].eth[0].phyLayer.interFrameGapInserter interpacketGap:vector ETV
attr interpolationmode sample-hold
attr recordingmode vector
attr source "count(interpacketGapStarted) - count(interpacketGapEnded)"
attr title "interpacket gap state"
attr type int
vector 120 TimeSyncUEUE.FGS.dstt[0].eth[0].phyLayer.transmitter transmitting:vector ETV
attr interpolationmode sample-hold
attr recordingmode vector
attr source "count(transmissionStarted) - count(transmissionEnded)"
attr title "transmitting state"
attr type int
vector 121 TimeSyncUEUE.FGS.dstt[0].tt[0].clock timeChanged:vector ETV
attr interpolationmode linear
attr recordingmode vector
attr title "Clock time"
vector 122 TimeSyncUEUE.FGS.dstt[0].tt[0].macLayer.queue queueLength:vector ETV
attr autoWarmupFilter false
attr interpolationmode sample-hold
attr recordingmode vector
attr source "warmup(atomic(constant0(packetPushEnded) + count(packetPushStarted) - count(packetPulled) - count(packetRemoved) - count(packetDropped)))"
attr title "queue length"
attr unit pk
vector 123 TimeSyncUEUE.FGS.dstt[0].tt[0].macLayer.queue queueBitLength:vector ETV
attr autoWarmupFilter false
attr interpolationmode sample-hold
attr recordingmode vector
attr source "warmup(atomic(constant0(packetPushEnded) + sum(packetLength(packetPushStarted)) - sum(packetLength(packetPulled)) - sum(packetLength(packetRemoved)) - sum(packetLength(packetDropped))))"
attr title "queue bit length"
attr unit b
vector 124 TimeSyncUEUE.FGS.dstt[0].tt[0].phyLayer.interFrameGapInserter interpacketGap:vector ETV
attr interpolationmode sample-hold
attr recordingmode vector
attr source "count(interpacketGapStarted) - count(interpacketGapEnded)"
attr title "interpacket gap state"
attr type int
vector 125 TimeSyncUEUE.FGS.dstt[0].tt[0].phyLayer.transmitter transmitting:vector ETV
attr interpolationmode sample-hold
attr recordingmode vector
attr source "count(transmissionStarted) - count(transmissionEnded)"
attr title "transmitting state"
attr type int
vector 126 TimeSyncUEUE.FGS.dstt[0].tt[1].clock timeChanged:vector ETV
attr interpolationmode linear
attr recordingmode vector
attr title "Clock time"
vector 127 TimeSyncUEUE.FGS.dstt[0].tt[1].macLayer.queue queueLength:vector ETV
attr autoWarmupFilter false
attr interpolationmode sample-hold
attr recordingmode vector
attr source "warmup(atomic(constant0(packetPushEnded) + count(packetPushStarted) - count(packetPulled) - count(packetRemoved) - count(packetDropped)))"
attr title "queue length"
attr unit pk
vector 128 TimeSyncUEUE.FGS.dstt[0].tt[1].macLayer.queue queueBitLength:vector ETV
attr autoWarmupFilter false
attr interpolationmode sample-hold
attr recordingmode vector
attr source "warmup(atomic(constant0(packetPushEnded) + sum(packetLength(packetPushStarted)) - sum(packetLength(packetPulled)) - sum(packetLength(packetRemoved)) - sum(packetLength(packetDropped))))"
attr title "queue bit length"
attr unit b
vector 129 TimeSyncUEUE.FGS.dstt[0].tt[1].phyLayer.interFrameGapInserter interpacketGap:vector ETV
attr interpolationmode sample-hold
attr recordingmode vector
attr source "count(interpacketGapStarted) - count(interpacketGapEnded)"
attr title "interpacket gap state"
attr type int
vector 130 TimeSyncUEUE.FGS.dstt[0].tt[1].phyLayer.transmitter transmitting:vector ETV
attr interpolationmode sample-hold
attr recordingmode vector
attr source "count(transmissionStarted) - count(transmissionEnded)"
attr title "transmitting state"
attr type int
vector 131 TimeSyncUEUE.FGS.dstt[0].tt[2].clock timeChanged:vector ETV
attr interpolationmode linear
attr recordingmode vector
attr title "Clock time"
vector 132 TimeSyncUEUE.FGS.dstt[0].tt[2].macLayer.queue queueLength:vector ETV
attr autoWarmupFilter false
attr interpolationmode sample-hold
attr recordingmode vector
attr source "warmup(atomic(constant0(packetPushEnded) + count(packetPushStarted) - count(packetPulled) - count(packetRemoved) - count(packetDropped)))"
attr title "queue length"
attr unit pk
vector 133 TimeSyncUEUE.FGS.dstt[0].tt[2].macLayer.queue queueBitLength:vector ETV
attr autoWarmupFilter false
attr interpolationmode sample-hold
attr recordingmode vector
attr source "warmup(atomic(constant0(packetPushEnded) + sum(packetLength(packetPushStarted)) - sum(packetLength(packetPulled)) - sum(packetLength(packetRemoved)) - sum(packetLength(packetDropped))))"
attr title "queue bit length"
attr unit b
vector 134 TimeSyncUEUE.FGS.dstt[0].tt[2].phyLayer.interFrameGapInserter interpacketGap:vector ETV
attr interpolationmode sample-hold
attr recordingmode vector
attr source "count(interpacketGapStarted) - count(interpacketGapEnded)"
attr title "interpacket gap state"
attr type int
vector 135 TimeSyncUEUE.FGS.dstt[0].tt[2].phyLayer.transmitter transmitting:vector ETV
attr interpolationmode sample-hold
attr recordingmode vector
attr source "count(transmissionStarted) - count(transmissionEnded)"
attr title "transmitting state"
attr type int
vector 136 TimeSyncUEUE.FGS.dstt[1].clock timeChanged:vector ETV
attr interpolationmode linear
attr recordingmode vector
attr title "Clock time"
vector 137 TimeSyncUEUE.FGS.dstt[1].eth[0].clock timeChanged:vector ETV
attr interpolationmode linear
attr recordingmode vector
attr title "Clock time"
vector 138 TimeSyncUEUE.FGS.dstt[1].eth[0].macLayer.queue queueLength:vector ETV
attr autoWarmupFilter false
attr interpolationmode sample-hold
attr recordingmode vector
attr source "warmup(atomic(constant0(packetPushEnded) + count(packetPushStarted) - count(packetPulled) - count(packetRemoved) - count(packetDropped)))"
attr title "queue length"
attr unit pk
vector 139 TimeSyncUEUE.FGS.dstt[1].eth[0].macLayer.queue queueBitLength:vector ETV
attr autoWarmupFilter false
attr interpolationmode sample-hold
attr recordingmode vector
attr source "warmup(atomic(constant0(packetPushEnded) + sum(packetLength(packetPushStarted)) - sum(packetLength(packetPulled)) - sum(packetLength(packetRemoved)) - sum(packetLength(packetDropped))))"
attr title "queue bit length"
attr unit b
vector 140 TimeSyncUEUE.FGS.dstt[1].eth[0].phyLayer.interFrameGapInserter interpacketGap:vector ETV
attr interpolationmode sample-hold
attr recordingmode vector
attr source "count(interpacketGapStarted) - count(interpacketGapEnded)"
attr title "interpacket gap state"
attr type int
vector 141 TimeSyncUEUE.FGS.dstt[1].eth[0].phyLayer.transmitter transmitting:vector ETV
attr interpolationmode sample-hold
attr recordingmode vector
attr source "count(transmissionStarted) - count(transmissionEnded)"
attr title "transmitting state"
attr type int
vector 142 TimeSyncUEUE.FGS.dstt[1].tt[0].clock timeChanged:vector ETV
attr interpolationmode linear
attr recordingmode vector
attr title "Clock time"
vector 143 TimeSyncUEUE.FGS.dstt[1].tt[0].macLayer.queue queueLength:vector ETV
attr autoWarmupFilter false
attr interpolationmode sample-hold
attr recordingmode vector
attr source "warmup(atomic(constant0(packetPushEnded) + count(packetPushStarted) - count(packetPulled) - count(packetRemoved) - count(packetDropped)))"
attr title "queue length"
attr unit pk
vector 144 TimeSyncUEUE.FGS.dstt[1].tt[0].macLayer.queue queueBitLength:vector ETV
attr autoWarmupFilter false
attr interpolationmode sample-hold
attr recordingmode vector
attr source "warmup(atomic(constant0(packetPushEnded) + sum(packetLength(packetPushStarted)) - sum(packetLength(packetPulled)) - sum(packetLength(packetRemoved)) - sum(packetLength(packetDropped))))"
attr title "queue bit length"
attr unit b
vector 145 TimeSyncUEUE.FGS.dstt[1].tt[0].phyLayer.interFrameGapInserter interpacketGap:vector ETV
attr interpolationmode sample-hold
attr recordingmode vector
attr source "count(interpacketGapStarted) - count(interpacketGapEnded)"
attr title "interpacket gap state"
attr type int
vector 146 TimeSyncUEUE.FGS.dstt[1].tt[0].phyLayer.transmitter transmitting:vector ETV
attr interpolationmode sample-hold
attr recordingmode vector
attr source "count(transmissionStarted) - count(transmissionEnded)"
attr title "transmitting state"
attr type int
vector 147 TimeSyncUEUE.FGS.dstt[1].tt[1].clock timeChanged:vector ETV
attr interpolationmode linear
attr recordingmode vector
attr title "Clock time"
vector 148 TimeSyncUEUE.FGS.dstt[1].tt[1].macLayer.queue queueLength:vector ETV
attr autoWarmupFilter false
attr interpolationmode sample-hold
attr recordingmode vector
attr source "warmup(atomic(constant0(packetPushEnded) + count(packetPushStarted) - count(packetPulled) - count(packetRemoved) - count(packetDropped)))"
attr title "queue length"
attr unit pk
vector 149 TimeSyncUEUE.FGS.dstt[1].tt[1].macLayer.queue queueBitLength:vector ETV
attr autoWarmupFilter false
attr interpolationmode sample-hold
attr recordingmode vector
attr source "warmup(atomic(constant0(packetPushEnded) + sum(packetLength(packetPushStarted)) - sum(packetLength(packetPulled)) - sum(packetLength(packetRemoved)) - sum(packetLength(packetDropped))))"
attr title "queue bit length"
attr unit b
vector 150 TimeSyncUEUE.FGS.dstt[1].tt[1].phyLayer.interFrameGapInserter interpacketGap:vector ETV
attr interpolationmode sample-hold
attr recordingmode vector
attr source "count(interpacketGapStarted) - count(interpacketGapEnded)"
attr title "interpacket gap state"
attr type int
vector 151 TimeSyncUEUE.FGS.dstt[1].tt[1].phyLayer.transmitter transmitting:vector ETV
attr interpolationmode sample-hold
attr recordingmode vector
attr source "count(transmissionStarted) - count(transmissionEnded)"
attr title "transmitting state"
attr type int
vector 152 TimeSyncUEUE.FGS.dstt[1].tt[2].clock timeChanged:vector ETV
attr interpolationmode linear
attr recordingmode vector
attr title "Clock time"
vector 153 TimeSyncUEUE.FGS.dstt[1].tt[2].macLayer.queue queueLength:vector ETV
attr autoWarmupFilter false
attr interpolationmode sample-hold
attr recordingmode vector
attr source "warmup(atomic(constant0(packetPushEnded) + count(packetPushStarted) - count(packetPulled) - count(packetRemoved) - count(packetDropped)))"
attr title "queue length"
attr unit pk
vector 154 TimeSyncUEUE.FGS.dstt[1].tt[2].macLayer.queue queueBitLength:vector ETV
attr autoWarmupFilter false
attr interpolationmode sample-hold
attr recordingmode vector
attr source "warmup(atomic(constant0(packetPushEnded) + sum(packetLength(packetPushStarted)) - sum(packetLength(packetPulled)) - sum(packetLength(packetRemoved)) - sum(packetLength(packetDropped))))"
attr title "queue bit length"
attr unit b
vector 155 TimeSyncUEUE.FGS.dstt[1].tt[2].phyLayer.interFrameGapInserter interpacketGap:vector ETV
attr interpolationmode sample-hold
attr recordingmode vector
attr source "count(interpacketGapStarted) - count(interpacketGapEnded)"
attr title "interpacket gap state"
attr type int
vector 156 TimeSyncUEUE.FGS.dstt[1].tt[2].phyLayer.transmitter transmitting:vector ETV
attr interpolationmode sample-hold
attr recordingmode vector
attr source "count(transmissionStarted) - count(transmissionEnded)"
attr title "transmitting state"
attr type int
vector 157 TimeSyncUEUE.FGS.dstt[2].clock timeChanged:vector ETV
attr interpolationmode linear
attr recordingmode vector
attr title "Clock time"
vector 158 TimeSyncUEUE.FGS.dstt[2].eth[0].clock timeChanged:vector ETV
attr interpolationmode linear
attr recordingmode vector
attr title "Clock time"
vector 159 TimeSyncUEUE.FGS.dstt[2].eth[0].macLayer.queue queueLength:vector ETV
attr autoWarmupFilter false
attr interpolationmode sample-hold
attr recordingmode vector
attr source "warmup(atomic(constant0(packetPushEnded) + count(packetPushStarted) - count(packetPulled) - count(packetRemoved) - count(packetDropped)))"
attr title "queue length"
attr unit pk
vector 160 TimeSyncUEUE.FGS.dstt[2].eth[0].macLayer.queue queueBitLength:vector ETV
attr autoWarmupFilter false
attr interpolationmode sample-hold
attr recordingmode vector
attr source "warmup(atomic(constant0(packetPushEnded) + sum(packetLength(packetPushStarted)) - sum(packetLength(packetPulled)) - sum(packetLength(packetRemoved)) - sum(packetLength(packetDropped))))"
attr title "queue bit length"
attr unit b
vector 161 TimeSyncUEUE.FGS.dstt[2].eth[0].phyLayer.interFrameGapInserter interpacketGap:vector ETV
attr interpolationmode sample-hold
attr recordingmode vector
attr source "count(interpacketGapStarted) - count(interpacketGapEnded)"
attr title "interpacket gap state"
attr type int
vector 162 TimeSyncUEUE.FGS.dstt[2].eth[0].phyLayer.transmitter transmitting:vector ETV
attr interpolationmode sample-hold
attr recordingmode vector
attr source "count(transmissionStarted) - count(transmissionEnded)"
attr title "transmitting state"
attr type int
vector 163 TimeSyncUEUE.FGS.dstt[2].tt[0].clock timeChanged:vector ETV
attr interpolationmode linear
attr recordingmode vector
attr title "Clock time"
vector 164 TimeSyncUEUE.FGS.dstt[2].tt[0].macLayer.queue queueLength:vector ETV
attr autoWarmupFilter false
attr interpolationmode sample-hold
attr recordingmode vector
attr source "warmup(atomic(constant0(packetPushEnded) + count(packetPushStarted) - count(packetPulled) - count(packetRemoved) - count(packetDropped)))"
attr title "queue length"
attr unit pk
vector 165 TimeSyncUEUE.FGS.dstt[2].tt[0].macLayer.queue queueBitLength:vector ETV
attr autoWarmupFilter false
attr interpolationmode sample-hold
attr recordingmode vector
attr source "warmup(atomic(constant0(packetPushEnded) + sum(packetLength(packetPushStarted)) - sum(packetLength(packetPulled)) - sum(packetLength(packetRemoved)) - sum(packetLength(packetDropped))))"
attr title "queue bit length"
attr unit b
vector 166 TimeSyncUEUE.FGS.dstt[2].tt[0].phyLayer.interFrameGapInserter interpacketGap:vector ETV
attr interpolationmode sample-hold
attr recordingmode vector
attr source "count(interpacketGapStarted) - count(interpacketGapEnded)"
attr title "interpacket gap state"
attr type int
vector 167 TimeSyncUEUE.FGS.dstt[2].tt[0].phyLayer.transmitter transmitting:vector ETV
attr interpolationmode sample-hold
attr recordingmode vector
attr source "count(transmissionStarted) - count(transmissionEnded)"
attr title "transmitting state"
attr type int
vector 168 TimeSyncUEUE.FGS.dstt[2].tt[1].clock timeChanged:vector ETV
attr interpolationmode linear
attr recordingmode vector
attr title "Clock time"
vector 169 TimeSyncUEUE.FGS.dstt[2].tt[1].macLayer.queue queueLength:vector ETV
attr autoWarmupFilter false
attr interpolationmode sample-hold
attr recordingmode vector
attr source "warmup(atomic(constant0(packetPushEnded) + count(packetPushStarted) - count(packetPulled) - count(packetRemoved) - count(packetDropped)))"
attr title "queue length"
attr unit pk
vector 170 TimeSyncUEUE.FGS.dstt[2].tt[1].macLayer.queue queueBitLength:vector ETV
attr autoWarmupFilter false
attr interpolationmode sample-hold
attr recordingmode vector
attr source "warmup(atomic(constant0(packetPushEnded) + sum(packetLength(packetPushStarted)) - sum(packetLength(packetPulled)) - sum(packetLength(packetRemoved)) - sum(packetLength(packetDropped))))"
attr title "queue bit length"
attr unit b
vector 171 TimeSyncUEUE.FGS.dstt[2].tt[1].phyLayer.interFrameGapInserter interpacketGap:vector ETV
attr interpolationmode sample-hold
attr recordingmode vector
attr source "count(interpacketGapStarted) - count(interpacketGapEnded)"
attr title "interpacket gap state"
attr type int
vector 172 TimeSyncUEUE.FGS.dstt[2].tt[1].phyLayer.transmitter transmitting:vector ETV
attr interpolationmode sample-hold
attr recordingmode vector
attr source "count(transmissionStarted) - count(transmissionEnded)"
attr title "transmitting state"
attr type int
vector 173 TimeSyncUEUE.FGS.dstt[2].tt[2].clock timeChanged:vector ETV
attr interpolationmode linear
attr recordingmode vector
attr title "Clock time"
vector 174 TimeSyncUEUE.FGS.dstt[2].tt[2].macLayer.queue queueLength:vector ETV
attr autoWarmupFilter false
attr interpolationmode sample-hold
attr recordingmode vector
attr source "warmup(atomic(constant0(packetPushEnded) + count(packetPushStarted) - count(packetPulled) - count(packetRemoved) - count(packetDropped)))"
attr title "queue length"
attr unit pk
vector 175 TimeSyncUEUE.FGS.dstt[2].tt[2].macLayer.queue queueBitLength:vector ETV
attr autoWarmupFilter false
attr interpolationmode sample-hold
attr recordingmode vector
attr source "warmup(atomic(constant0(packetPushEnded) + sum(packetLength(packetPushStarted)) - sum(packetLength(packetPulled)) - sum(packetLength(packetRemoved)) - sum(packetLength(packetDropped))))"
attr title "queue bit length"
attr unit b
vector 176 TimeSyncUEUE.FGS.dstt[2].tt[2].phyLayer.interFrameGapInserter interpacketGap:vector ETV
attr interpolationmode sample-hold
attr recordingmode vector
attr source "count(interpacketGapStarted) - count(interpacketGapEnded)"
attr title "interpacket gap state"
attr type int
vector 177 TimeSyncUEUE.FGS.dstt[2].tt[2].phyLayer.transmitter transmitting:vector ETV
attr interpolationmode sample-hold
attr recordingmode vector
attr source "count(transmissionStarted) - count(transmissionEnded)"
attr title "transmitting state"
attr type int
vector 178 TimeSyncUEUE.FGS.nwtt[0].clock timeChanged:vector ETV
attr interpolationmode linear
attr recordingmode vector
attr title "Clock time"
vector 179 TimeSyncUEUE.FGS.nwtt[0].eth[0].clock timeChanged:vector ETV
attr interpolationmode linear
attr recordingmode vector
attr title "Clock time"
vector 180 TimeSyncUEUE.FGS.nwtt[0].eth[0].macLayer.queue queueLength:vector ETV
attr autoWarmupFilter false
attr interpolationmode sample-hold
attr recordingmode vector
attr source "warmup(atomic(constant0(packetPushEnded) + count(packetPushStarted) - count(packetPulled) - count(packetRemoved) - count(packetDropped)))"
attr title "queue length"
attr unit pk
vector 181 TimeSyncUEUE.FGS.nwtt[0].eth[0].macLayer.queue queueBitLength:vector ETV
attr autoWarmupFilter false
attr interpolationmode sample-hold
attr recordingmode vector
attr source "warmup(atomic(constant0(packetPushEnded) + sum(packetLength(packetPushStarted)) - sum(packetLength(packetPulled)) - sum(packetLength(packetRemoved)) - sum(packetLength(packetDropped))))"
attr title "queue bit length"
attr unit b
vector 182 TimeSyncUEUE.FGS.nwtt[0].eth[0].phyLayer.interFrameGapInserter interpacketGap:vector ETV
attr interpolationmode sample-hold
attr recordingmode vector
attr source "count(interpacketGapStarted) - count(interpacketGapEnded)"
attr title "interpacket gap state"
attr type int
vector 183 TimeSyncUEUE.FGS.nwtt[0].eth[0].phyLayer.transmitter transmitting:vector ETV
attr interpolationmode sample-hold
attr recordingmode vector
attr source "count(transmissionStarted) - count(transmissionEnded)"
attr title "transmitting state"
attr type int
vector 184 TimeSyncUEUE.FGS.nwtt[0].tt[0].clock timeChanged:vector ETV
attr interpolationmode linear
attr recordingmode vector
attr title "Clock time"
vector 185 TimeSyncUEUE.FGS.nwtt[0].tt[0].macLayer.queue queueLength:vector ETV
attr autoWarmupFilter false
attr interpolationmode sample-hold
attr recordingmode vector
attr source "warmup(atomic(constant0(packetPushEnded) + count(packetPushStarted) - count(packetPulled) - count(packetRemoved) - count(packetDropped)))"
attr title "queue length"
attr unit pk
vector 186 TimeSyncUEUE.FGS.nwtt[0].tt[0].macLayer.queue queueBitLength:vector ETV
attr autoWarmupFilter false
attr interpolationmode sample-hold
attr recordingmode vector
attr source "warmup(atomic(constant0(packetPushEnded) + sum(packetLength(packetPushStarted)) - sum(packetLength(packetPulled)) - sum(packetLength(packetRemoved)) - sum(packetLength(packetDropped))))"
attr title "queue bit length"
attr unit b
vector 187 TimeSyncUEUE.FGS.nwtt[0].tt[0].phyLayer.interFrameGapInserter interpacketGap:vector ETV
attr interpolationmode sample-hold
attr recordingmode vector
attr source "count(interpacketGapStarted) - count(interpacketGapEnded)"
attr title "interpacket gap state"
attr type int
vector 188 TimeSyncUEUE.FGS.nwtt[0].tt[0].phyLayer.transmitter transmitting:vector ETV
attr interpolationmode sample-hold
attr recordingmode vector
attr source "count(transmissionStarted) - count(transmissionEnded)"
attr title "transmitting state"
attr type int
vector 189 TimeSyncUEUE.FGS.nwtt[0].tt[1].clock timeChanged:vector ETV
attr interpolationmode linear
attr recordingmode vector
attr title "Clock time"
vector 190 TimeSyncUEUE.FGS.nwtt[0].tt[1].macLayer.queue queueLength:vector ETV
attr autoWarmupFilter false
attr interpolationmode sample-hold
attr recordingmode vector
attr source "warmup(atomic(constant0(packetPushEnded) + count(packetPushStarted) - count(packetPulled) - count(packetRemoved) - count(packetDropped)))"
attr title "queue length"
attr unit pk
vector 191 TimeSyncUEUE.FGS.nwtt[0].tt[1].macLayer.queue queueBitLength:vector ETV
attr autoWarmupFilter false
attr interpolationmode sample-hold
attr recordingmode vector
attr source "warmup(atomic(constant0(packetPushEnded) + sum(packetLength(packetPushStarted)) - sum(packetLength(packetPulled)) - sum(packetLength(packetRemoved)) - sum(packetLength(packetDropped))))"
attr title "queue bit length"
attr unit b
vector 192 TimeSyncUEUE.FGS.nwtt[0].tt[1].phyLayer.interFrameGapInserter interpacketGap:vector ETV
attr interpolationmode sample-hold
attr recordingmode vector
attr source "count(interpacketGapStarted) - count(interpacketGapEnded)"
attr title "interpacket gap state"
attr type int
vector 193 TimeSyncUEUE.FGS.nwtt[0].tt[1].phyLayer.transmitter transmitting:vector ETV
attr interpolationmode sample-hold
attr recordingmode vector
attr source "count(transmissionStarted) - count(transmissionEnded)"
attr title "transmitting state"
attr type int
vector 194 TimeSyncUEUE.FGS.nwtt[0].tt[2].clock timeChanged:vector ETV
attr interpolationmode linear
attr recordingmode vector
attr title "Clock time"
vector 195 TimeSyncUEUE.FGS.nwtt[0].tt[2].macLayer.queue queueLength:vector ETV
attr autoWarmupFilter false
attr interpolationmode sample-hold
attr recordingmode vector
attr source "warmup(atomic(constant0(packetPushEnded) + count(packetPushStarted) - count(packetPulled) - count(packetRemoved) - count(packetDropped)))"
attr title "queue length"
attr unit pk
vector 196 TimeSyncUEUE.FGS.nwtt[0].tt[2].macLayer.queue queueBitLength:vector ETV
attr autoWarmupFilter false
attr interpolationmode sample-hold
attr recordingmode vector
attr source "warmup(atomic(constant0(packetPushEnded) + sum(packetLength(packetPushStarted)) - sum(packetLength(packetPulled)) - sum(packetLength(packetRemoved)) - sum(packetLength(packetDropped))))"
attr title "queue bit length"
attr unit b
vector 197 TimeSyncUEUE.FGS.nwtt[0].tt[2].phyLayer.interFrameGapInserter interpacketGap:vector ETV
attr interpolationmode sample-hold
attr recordingmode vector
attr source "count(interpacketGapStarted) - count(interpacketGapEnded)"
attr title "interpacket gap state"
attr type int
vector 198 TimeSyncUEUE.FGS.nwtt[0].tt[2].phyLayer.transmitter transmitting:vector ETV
attr interpolationmode sample-hold
attr recordingmode vector
attr source "count(transmissionStarted) - count(transmissionEnded)"
attr title "transmitting state"
attr type int
vector 199 TimeSyncUEUE.SwitchS1.clock timeChanged:vector ETV
attr interpolationmode linear
attr recordingmode vector
attr title "Clock time"
vector 200 TimeSyncUEUE.SensorS1.clock timeChanged:vector ETV
attr interpolationmode linear
attr recordingmode vector
attr title "Clock time"
vector 201 TimeSyncUEUE.CameraS1.clock timeChanged:vector ETV
attr interpolationmode linear
attr recordingmode vector
attr title "Clock time"
vector 202 TimeSyncUEUE.EsteiraS1.clock timeChanged:vector ETV
attr interpolationmode linear
attr recordingmode vector
attr title "Clock time"
vector 203 TimeSyncUEUE.RoboS1.clock timeChanged:vector ETV
attr interpolationmode linear
attr recordingmode vector
attr title "Clock time"
vector 204 TimeSyncUEUE.SwitchS2.clock timeChanged:vector ETV
attr interpolationmode linear
attr recordingmode vector
attr title "Clock time"
vector 205 TimeSyncUEUE.EsteiraS2.clock timeChanged:vector ETV
attr interpolationmode linear
attr recordingmode vector
attr title "Clock time"
vector 206 TimeSyncUEUE.RoboS2.clock timeChanged:vector ETV
attr interpolationmode linear
attr recordingmode vector
attr title "Clock time"
vector 207 TimeSyncUEUE.SwitchS3.clock timeChanged:vector ETV
attr interpolationmode linear
attr recordingmode vector
attr title "Clock time"
vector 208 TimeSyncUEUE.SensorS3.clock timeChanged:vector ETV
attr interpolationmode linear
attr recordingmode vector
attr title "Clock time"
vector 209 TimeSyncUEUE.EsteiraS3.clock timeChanged:vector ETV
attr interpolationmode linear
attr recordingmode vector
attr title "Clock time"
vector 210 TimeSyncUEUE.SwitchDN.clock timeChanged:vector ETV
attr interpolationmode linear
attr recordingmode vector
attr title "Clock time"
vector 211 TimeSyncUEUE.PLC.clock timeChanged:vector ETV
attr interpolationmode linear
attr recordingmode vector
attr title "Clock time"
vector 212 TimeSyncUEUE.SwitchS1.ethernet.macHeaderInserter incomingPacketLengths:vector ETV
attr interpolationmode none
attr recordingmode vector
attr source "packetLength(merge(packetPushedIn, packetPulledIn))"
attr title "incoming packet lengths"
attr unit b
vector 213 TimeSyncUEUE.SwitchS1.ethernet.macHeaderInserter outgoingPacketLengths:vector ETV
attr interpolationmode none
attr recordingmode vector
attr source "packetLength(merge(packetPushedOut, packetPulledOut))"
attr title "outgoing packet lengths"
attr unit b
vector 214 TimeSyncUEUE.SwitchS1.ethernet.paddingInserter incomingPacketLengths:vector ETV
attr interpolationmode none
attr recordingmode vector
attr source "packetLength(merge(packetPushedIn, packetPulledIn))"
attr title "incoming packet lengths"
attr unit b
vector 215 TimeSyncUEUE.SwitchS1.ethernet.paddingInserter outgoingPacketLengths:vector ETV
attr interpolationmode none
attr recordingmode vector
attr source "packetLength(merge(packetPushedOut, packetPulledOut))"
attr title "outgoing packet lengths"
attr unit b
vector 216 TimeSyncUEUE.SwitchS1.ethernet.fcsInserter incomingPacketLengths:vector ETV
attr interpolationmode none
attr recordingmode vector
attr source "packetLength(merge(packetPushedIn, packetPulledIn))"
attr title "incoming packet lengths"
attr unit b
vector 217 TimeSyncUEUE.SwitchS1.ethernet.fcsInserter outgoingPacketLengths:vector ETV
attr interpolationmode none
attr recordingmode vector
attr source "packetLength(merge(packetPushedOut, packetPulledOut))"
attr title "outgoing packet lengths"
attr unit b
vector 218 TimeSyncUEUE.SwitchS1.eth[0].macLayer.queue incomingPacketLengths:vector ETV
attr interpolationmode none
attr recordingmode vector
attr source packetLength(packetPushStarted)
attr title "incoming packet lengths"
attr unit b
vector 219 TimeSyncUEUE.SensorS1.ethernet.macHeaderInserter incomingPacketLengths:vector ETV
attr interpolationmode none
attr recordingmode vector
attr source "packetLength(merge(packetPushedIn, packetPulledIn))"
attr title "incoming packet lengths"
attr unit b
vector 220 TimeSyncUEUE.SensorS1.ethernet.macHeaderInserter outgoingPacketLengths:vector ETV
attr interpolationmode none
attr recordingmode vector
attr source "packetLength(merge(packetPushedOut, packetPulledOut))"
attr title "outgoing packet lengths"
attr unit b
vector 221 TimeSyncUEUE.SensorS1.ethernet.paddingInserter incomingPacketLengths:vector ETV
attr interpolationmode none
attr recordingmode vector
attr source "packetLength(merge(packetPushedIn, packetPulledIn))"
attr title "incoming packet lengths"
attr unit b
vector 222 TimeSyncUEUE.SensorS1.ethernet.paddingInserter outgoingPacketLengths:vector ETV
attr interpolationmode none
attr recordingmode vector
attr source "packetLength(merge(packetPushedOut, packetPulledOut))"
attr title "outgoing packet lengths"
attr unit b
vector 223 TimeSyncUEUE.SensorS1.ethernet.fcsInserter incomingPacketLengths:vector ETV
attr interpolationmode none
attr recordingmode vector
attr source "packetLength(merge(packetPushedIn, packetPulledIn))"
attr title "incoming packet lengths"
attr unit b
vector 224 TimeSyncUEUE.SensorS1.ethernet.fcsInserter outgoingPacketLengths:vector ETV
attr interpolationmode none
attr recordingmode vector
attr source "packetLength(merge(packetPushedOut, packetPulledOut))"
attr title "outgoing packet lengths"
attr unit b
vector 225 TimeSyncUEUE.SensorS1.eth[0].macLayer.queue incomingPacketLengths:vector ETV
attr interpolationmode none
attr recordingmode vector
attr source packetLength(packetPushStarted)
attr title "incoming packet lengths"
attr unit b
vector 226 TimeSyncUEUE.CameraS1.ethernet.macHeaderInserter incomingPacketLengths:vector ETV
attr interpolationmode none
attr recordingmode vector
attr source "packetLength(merge(packetPushedIn, packetPulledIn))"
attr title "incoming packet lengths"
attr unit b
vector 227 TimeSyncUEUE.CameraS1.ethernet.macHeaderInserter outgoingPacketLengths:vector ETV
attr interpolationmode none
attr recordingmode vector
attr source "packetLength(merge(packetPushedOut, packetPulledOut))"
attr title "outgoing packet lengths"
attr unit b
vector 228 TimeSyncUEUE.CameraS1.ethernet.paddingInserter incomingPacketLengths:vector ETV
attr interpolationmode none
attr recordingmode vector
attr source "packetLength(merge(packetPushedIn, packetPulledIn))"
attr title "incoming packet lengths"
attr unit b
vector 229 TimeSyncUEUE.CameraS1.ethernet.paddingInserter outgoingPacketLengths:vector ETV
attr interpolationmode none
attr recordingmode vector
attr source "packetLength(merge(packetPushedOut, packetPulledOut))"
attr title "outgoing packet lengths"
attr unit b
vector 230 TimeSyncUEUE.CameraS1.ethernet.fcsInserter incomingPacketLengths:vector ETV
attr interpolationmode none
attr recordingmode vector
attr source "packetLength(merge(packetPushedIn, packetPulledIn))"
attr title "incoming packet lengths"
attr unit b
vector 231 TimeSyncUEUE.CameraS1.ethernet.fcsInserter outgoingPacketLengths:vector ETV
attr interpolationmode none
attr recordingmode vector
attr source "packetLength(merge(packetPushedOut, packetPulledOut))"
attr title "outgoing packet lengths"
attr unit b
vector 232 TimeSyncUEUE.CameraS1.eth[0].macLayer.queue incomingPacketLengths:vector ETV
attr interpolationmode none
attr recordingmode vector
attr source packetLength(packetPushStarted)
attr title "incoming packet lengths"
attr unit b
vector 233 TimeSyncUEUE.EsteiraS1.ethernet.macHeaderInserter incomingPacketLengths:vector ETV
attr interpolationmode none
attr recordingmode vector
attr source "packetLength(merge(packetPushedIn, packetPulledIn))"
attr title "incoming packet lengths"
attr unit b
vector 234 TimeSyncUEUE.EsteiraS1.ethernet.macHeaderInserter outgoingPacketLengths:vector ETV
attr interpolationmode none
attr recordingmode vector
attr source "packetLength(merge(packetPushedOut, packetPulledOut))"
attr title "outgoing packet lengths"
attr unit b
vector 235 TimeSyncUEUE.EsteiraS1.ethernet.paddingInserter incomingPacketLengths:vector ETV
attr interpolationmode none
attr recordingmode vector
attr source "packetLength(merge(packetPushedIn, packetPulledIn))"
attr title "incoming packet lengths"
attr unit b
vector 236 TimeSyncUEUE.EsteiraS1.ethernet.paddingInserter outgoingPacketLengths:vector ETV
attr interpolationmode none
attr recordingmode vector
attr source "packetLength(merge(packetPushedOut, packetPulledOut))"
attr title "outgoing packet lengths"
attr unit b
vector 237 TimeSyncUEUE.EsteiraS1.ethernet.fcsInserter incomingPacketLengths:vector ETV
attr interpolationmode none
attr recordingmode vector
attr source "packetLength(merge(packetPushedIn, packetPulledIn))"
attr title "incoming packet lengths"
attr unit b
vector 238 TimeSyncUEUE.EsteiraS1.ethernet.fcsInserter outgoingPacketLengths:vector ETV
attr interpolationmode none
attr recordingmode vector
attr source "packetLength(merge(packetPushedOut, packetPulledOut))"
attr title "outgoing packet lengths"
attr unit b
vector 239 TimeSyncUEUE.EsteiraS1.eth[0].macLayer.queue incomingPacketLengths:vector ETV
attr interpolationmode none
attr recordingmode vector
attr source packetLength(packetPushStarted)
attr title "incoming packet lengths"
attr unit b
vector 240 TimeSyncUEUE.RoboS1.ethernet.macHeaderInserter incomingPacketLengths:vector ETV
attr interpolationmode none
attr recordingmode vector
attr source "packetLength(merge(packetPushedIn, packetPulledIn))"
attr title "incoming packet lengths"
attr unit b
vector 241 TimeSyncUEUE.RoboS1.ethernet.macHeaderInserter outgoingPacketLengths:vector ETV
attr interpolationmode none
attr recordingmode vector
attr source "packetLength(merge(packetPushedOut, packetPulledOut))"
attr title "outgoing packet lengths"
attr unit b
vector 242 TimeSyncUEUE.RoboS1.ethernet.paddingInserter incomingPacketLengths:vector ETV
attr interpolationmode none
attr recordingmode vector
attr source "packetLength(merge(packetPushedIn, packetPulledIn))"
attr title "incoming packet lengths"
attr unit b
vector 243 TimeSyncUEUE.RoboS1.ethernet.paddingInserter outgoingPacketLengths:vector ETV
attr interpolationmode none
attr recordingmode vector
attr source "packetLength(merge(packetPushedOut, packetPulledOut))"
attr title "outgoing packet lengths"
attr unit b
vector 244 TimeSyncUEUE.RoboS1.ethernet.fcsInserter incomingPacketLengths:vector ETV
attr interpolationmode none
attr recordingmode vector
attr source "packetLength(merge(packetPushedIn, packetPulledIn))"
attr title "incoming packet lengths"
attr unit b
vector 245 TimeSyncUEUE.RoboS1.ethernet.fcsInserter outgoingPacketLengths:vector ETV
attr interpolationmode none
attr recordingmode vector
attr source "packetLength(merge(packetPushedOut, packetPulledOut))"
attr title "outgoing packet lengths"
attr unit b
vector 246 TimeSyncUEUE.RoboS1.eth[0].macLayer.queue incomingPacketLengths:vector ETV
attr interpolationmode none
attr recordingmode vector
attr source packetLength(packetPushStarted)
attr title "incoming packet lengths"
attr unit b
vector 247 TimeSyncUEUE.SwitchS2.ethernet.macHeaderInserter incomingPacketLengths:vector ETV
attr interpolationmode none
attr recordingmode vector
attr source "packetLength(merge(packetPushedIn, packetPulledIn))"
attr title "incoming packet lengths"
attr unit b
vector 248 TimeSyncUEUE.SwitchS2.ethernet.macHeaderInserter outgoingPacketLengths:vector ETV
attr interpolationmode none
attr recordingmode vector
attr source "packetLength(merge(packetPushedOut, packetPulledOut))"
attr title "outgoing packet lengths"
attr unit b
vector 249 TimeSyncUEUE.SwitchS2.ethernet.paddingInserter incomingPacketLengths:vector ETV
attr interpolationmode none
attr recordingmode vector
attr source "packetLength(merge(packetPushedIn, packetPulledIn))"
attr title "incoming packet lengths"
attr unit b
vector 250 TimeSyncUEUE.SwitchS2.ethernet.paddingInserter outgoingPacketLengths:vector ETV
attr interpolationmode none
attr recordingmode vector
attr source "packetLength(merge(packetPushedOut, packetPulledOut))"
attr title "outgoing packet lengths"
attr unit b
vector 251 TimeSyncUEUE.SwitchS2.ethernet.fcsInserter incomingPacketLengths:vector ETV
attr interpolationmode none
attr recordingmode vector
attr source "packetLength(merge(packetPushedIn, packetPulledIn))"
attr title "incoming packet lengths"
attr unit b
vector 252 TimeSyncUEUE.SwitchS2.ethernet.fcsInserter outgoingPacketLengths:vector ETV
attr interpolationmode none
attr recordingmode vector
attr source "packetLength(merge(packetPushedOut, packetPulledOut))"
attr title "outgoing packet lengths"
attr unit b
vector 253 TimeSyncUEUE.SwitchS2.eth[0].macLayer.queue incomingPacketLengths:vector ETV
attr interpolationmode none
attr recordingmode vector
attr source packetLength(packetPushStarted)
attr title "incoming packet lengths"
attr unit b
vector 254 TimeSyncUEUE.EsteiraS2.ethernet.macHeaderInserter incomingPacketLengths:vector ETV
attr interpolationmode none
attr recordingmode vector
attr source "packetLength(merge(packetPushedIn, packetPulledIn))"
attr title "incoming packet lengths"
attr unit b
vector 255 TimeSyncUEUE.EsteiraS2.ethernet.macHeaderInserter outgoingPacketLengths:vector ETV
attr interpolationmode none
attr recordingmode vector
attr source "packetLength(merge(packetPushedOut, packetPulledOut))"
attr title "outgoing packet lengths"
attr unit b
vector 256 TimeSyncUEUE.EsteiraS2.ethernet.paddingInserter incomingPacketLengths:vector ETV
attr interpolationmode none
attr recordingmode vector
attr source "packetLength(merge(packetPushedIn, packetPulledIn))"
attr title "incoming packet lengths"
attr unit b
vector 257 TimeSyncUEUE.EsteiraS2.ethernet.paddingInserter outgoingPacketLengths:vector ETV
attr interpolationmode none
attr recordingmode vector
attr source "packetLength(merge(packetPushedOut, packetPulledOut))"
attr title "outgoing packet lengths"
attr unit b
vector 258 TimeSyncUEUE.EsteiraS2.ethernet.fcsInserter incomingPacketLengths:vector ETV
attr interpolationmode none
attr recordingmode vector
attr source "packetLength(merge(packetPushedIn, packetPulledIn))"
attr title "incoming packet lengths"
attr unit b
vector 259 TimeSyncUEUE.EsteiraS2.ethernet.fcsInserter outgoingPacketLengths:vector ETV
attr interpolationmode none
attr recordingmode vector
attr source "packetLength(merge(packetPushedOut, packetPulledOut))"
attr title "outgoing packet lengths"
attr unit b
vector 260 TimeSyncUEUE.EsteiraS2.eth[0].macLayer.queue incomingPacketLengths:vector ETV
attr interpolationmode none
attr recordingmode vector
attr source packetLength(packetPushStarted)
attr title "incoming packet lengths"
attr unit b
vector 261 TimeSyncUEUE.RoboS2.ethernet.macHeaderInserter incomingPacketLengths:vector ETV
attr interpolationmode none
attr recordingmode vector
attr source "packetLength(merge(packetPushedIn, packetPulledIn))"
attr title "incoming packet lengths"
attr unit b
vector 262 TimeSyncUEUE.RoboS2.ethernet.macHeaderInserter outgoingPacketLengths:vector ETV
attr interpolationmode none
attr recordingmode vector
attr source "packetLength(merge(packetPushedOut, packetPulledOut))"
attr title "outgoing packet lengths"
attr unit b
vector 263 TimeSyncUEUE.RoboS2.ethernet.paddingInserter incomingPacketLengths:vector ETV
attr interpolationmode none
attr recordingmode vector
attr source "packetLength(merge(packetPushedIn, packetPulledIn))"
attr title "incoming packet lengths"
attr unit b
vector 264 TimeSyncUEUE.RoboS2.ethernet.paddingInserter outgoingPacketLengths:vector ETV
attr interpolationmode none
attr recordingmode vector
attr source "packetLength(merge(packetPushedOut, packetPulledOut))"
attr title "outgoing packet lengths"
attr unit b
vector 265 TimeSyncUEUE.RoboS2.ethernet.fcsInserter incomingPacketLengths:vector ETV
attr interpolationmode none
attr recordingmode vector
attr source "packetLength(merge(packetPushedIn, packetPulledIn))"
attr title "incoming packet lengths"
attr unit b
vector 266 TimeSyncUEUE.RoboS2.ethernet.fcsInserter outgoingPacketLengths:vector ETV
attr interpolationmode none
attr recordingmode vector
attr source "packetLength(merge(packetPushedOut, packetPulledOut))"
attr title "outgoing packet lengths"
attr unit b
vector 267 TimeSyncUEUE.RoboS2.eth[0].macLayer.queue incomingPacketLengths:vector ETV
attr interpolationmode none
attr recordingmode vector
attr source packetLength(packetPushStarted)
attr title "incoming packet lengths"
attr unit b
vector 268 TimeSyncUEUE.SwitchS3.ethernet.macHeaderInserter incomingPacketLengths:vector ETV
attr interpolationmode none
attr recordingmode vector
attr source "packetLength(merge(packetPushedIn, packetPulledIn))"
attr title "incoming packet lengths"
attr unit b
vector 269 TimeSyncUEUE.SwitchS3.ethernet.macHeaderInserter outgoingPacketLengths:vector ETV
attr interpolationmode none
attr recordingmode vector
attr source "packetLength(merge(packetPushedOut, packetPulledOut))"
attr title "outgoing packet lengths"
attr unit b
vector 270 TimeSyncUEUE.SwitchS3.ethernet.paddingInserter incomingPacketLengths:vector ETV
attr interpolationmode none
attr recordingmode vector
attr source "packetLength(merge(packetPushedIn, packetPulledIn))"
attr title "incoming packet lengths"
attr unit b
vector 271 TimeSyncUEUE.SwitchS3.ethernet.paddingInserter outgoingPacketLengths:vector ETV
attr interpolationmode none
attr recordingmode vector
[...]
1752	28319799 211 108791 109267 49 50 11 0 5760 11520 66355200
1753	28320010 191 108791 108791 49 49.9 10 0 5760 5760 33177600
1754	28320201 191 108791 108791 49 49.9 10 0 5760 5760 33177600
1755	28320392 191 108791 108791 49 49.9 10 0 5760 5760 33177600
1756	28320583 191 108791 108791 49 49.9 10 0 6400 6400 40960000
1757	28320774 191 108791 108791 49 49.9 10 0 6400 6400 40960000
1758	28320965 191 108791 108791 49 49.9 10 0 6400 6400 40960000
1759	28321156 192 108791 108791 49 49.9 10 0 0.064 0.064 0.004096
1760	28321348 211 108792 109267 49 50 11 0 5760 11520 66355200
1761	28321559 211 108792 109267 49 50 11 0 5760 11520 66355200
1762	28321770 211 108792 109267 49 50 11 0 5760 11520 66355200
1763	28321981 191 108792 108792 49 49.9 10 0 5760 5760 33177600
1764	28322172 191 108792 108792 49 49.9 10 0 5760 5760 33177600
1765	28322363 191 108792 108792 49 49.9 10 0 5760 5760 33177600
1766	28322554 191 108792 108792 49 49.9 10 0 6400 6400 40960000
1767	28322745 191 108792 108792 49 49.9 10 0 6400 6400 40960000
1768	28322936 191 108792 108792 49 49.9 10 0 6400 6400 40960000
1769	28323127 192 108792 108792 49 49.9 10 0 0.064 0.064 0.004096
1770	28323319 211 108801 109267 49 50 11 0 5760 11520 66355200
1771	28323530 211 108801 109267 49 50 11 0 5760 11520 66355200
1772	28323741 211 108801 109267 49 50 11 0 5760 11520 66355200
1773	28323952 191 108801 108801 49 49.9 10 0 5760 5760 33177600
1774	28324143 191 108801 108801 49 49.9 10 0 5760 5760 33177600
1775	28324334 191 108801 108801 49 49.9 10 0 5760 5760 33177600
1776	28324525 191 108801 108801 49 49.9 10 0 6400 6400 40960000
1777	28324716 191 108801 108801 49 49.9 10 0 6400 6400 40960000
1778	28324907 191 108801 108801 49 49.9 10 0 6400 6400 40960000
1779	28325098 192 108801 108801 49 49.9 10 0 0.064 0.064 0.004096
1780	28325290 191 109266 109266 49.1 50 10 0 5760 5760 33177600
1781	28325481 191 109266 109266 49.1 50 10 0 5760 5760 33177600
1782	28325672 191 109266 109266 49.1 50 10 0 5760 5760 33177600
1783	28325863 191 109266 109266 49.1 50 10 0 5760 5760 33177600
1784	28326054 191 109266 109266 49.1 50 10 0 5760 5760 33177600
1785	28326245 191 109266 109266 49.1 50 10 0 5760 5760 33177600
1786	28326436 191 109266 109266 49.1 50 10 0 6400 6400 40960000
1787	28326627 191 109266 109266 49.1 50 10 0 6400 6400 40960000
1788	28326818 191 109266 109266 49.1 50 10 0 6400 6400 40960000
1789	28327009 192 109266 109266 49.1 50 10 0 0.064 0.064 0.004096
1790	28327201 211 108856 109267 49 50 11 0 6400 12800 81920000
1791	28327412 211 108844 109267 49 50 11 0 6400 12800 81920000
1792	28327623 211 108845 109267 49 50 11 0 6400 12800 81920000
1793	28327834 211 108846 109267 49 50 11 0 6400 12800 81920000
1794	28328045 211 108847 109267 49 50 11 0 6400 12800 81920000
1795	28328256 211 108832 109267 49 50 11 0 6400 12800 81920000
1796	28328467 211 108838 109267 49 50 11 0 6400 12800 81920000
1797	28328678 211 108839 109267 49 50 11 0 6400 12800 81920000
1798	28328889 211 108829 109267 49 50 11 0 6400 12800 81920000
1799	28329100 211 108823 109267 49 50 11 0 6400 12800 81920000
1800	28329311 211 108824 109267 49 50 11 0 6400 12800 81920000
1801	28329522 211 108835 109267 49 50 11 0 6400 12800 81920000
1802	28329733 191 109267 109267 49.1 50 10 0 6400 6400 40960000
1803	28329924 211 108857 109267 49 50 11 0 6400 12800 81920000
1804	28330135 191 108857 108857 49 49.9 10 0 6400 6400 40960000
1805	28330326 191 108857 108857 49 49.9 10 0 6400 6400 40960000
1806	28330517 191 108857 108857 49 49.9 10 0 6400 6400 40960000
1807	28330708 191 108857 108857 49 49.9 10 0 5760 5760 33177600
1808	28330899 191 108857 108857 49 49.9 10 0 5760 5760 33177600
1809	28331090 191 108857 108857 49 49.9 10 0 5760 5760 33177600
1810	28331281 191 108857 108857 49 49.9 10 0 5760 5760 33177600
1811	28331472 191 108857 108857 49 49.9 10 0 5760 5760 33177600
1812	28331663 211 108848 109267 49 50 11 0 6400 12800 81920000
1813	28331874 191 108848 108848 49 49.9 10 0 6400 6400 40960000
1814	28332065 191 108848 108848 49 49.9 10 0 6400 6400 40960000
1815	28332256 191 108848 108848 49 49.9 10 0 6400 6400 40960000
1816	28332447 191 108848 108848 49 49.9 10 0 5760 5760 33177600
1817	28332638 191 108848 108848 49 49.9 10 0 5760 5760 33177600
1818	28332829 191 108848 108848 49 49.9 10 0 5760 5760 33177600
1819	28333020 191 108848 108848 49 49.9 10 0 5760 5760 33177600
1820	28333211 191 108848 108848 49 49.9 10 0 5760 5760 33177600
1821	28333402 211 108849 109267 49 50 11 0 6400 12800 81920000
1822	28333613 191 108849 108849 49 49.9 10 0 6400 6400 40960000
1823	28333804 191 108849 108849 49 49.9 10 0 6400 6400 40960000
1824	28333995 191 108849 108849 49 49.9 10 0 6400 6400 40960000
1825	28334186 191 108849 108849 49 49.9 10 0 5760 5760 33177600
1826	28334377 191 108849 108849 49 49.9 10 0 5760 5760 33177600
1827	28334568 191 108849 108849 49 49.9 10 0 5760 5760 33177600
1828	28334759 191 108849 108849 49 49.9 10 0 5760 5760 33177600
1829	28334950 191 108849 108849 49 49.9 10 0 5760 5760 33177600
1830	28335141 211 108850 109267 49 50 11 0 6400 12800 81920000
1831	28335352 191 108850 108850 49 49.9 10 0 6400 6400 40960000
1832	28335543 191 108850 108850 49 49.9 10 0 6400 6400 40960000
1833	28335734 191 108850 108850 49 49.9 10 0 6400 6400 40960000
1834	28335925 191 108850 108850 49 49.9 10 0 5760 5760 33177600
1835	28336116 191 108850 108850 49 49.9 10 0 5760 5760 33177600
1836	28336307 191 108850 108850 49 49.9 10 0 5760 5760 33177600
1837	28336498 191 108850 108850 49 49.9 10 0 5760 5760 33177600
1838	28336689 191 108850 108850 49 49.9 10 0 5760 5760 33177600
1839	28336880 211 108851 109267 49 50 11 0 6400 12800 81920000
1840	28337091 191 108851 108851 49 49.9 10 0 6400 6400 40960000
1841	28337282 191 108851 108851 49 49.9 10 0 6400 6400 40960000
1842	28337473 191 108851 108851 49 49.9 10 0 6400 6400 40960000
1843	28337664 191 108851 108851 49 49.9 10 0 5760 5760 33177600
1844	28337855 191 108851 108851 49 49.9 10 0 5760 5760 33177600
1845	28338046 191 108851 108851 49 49.9 10 0 5760 5760 33177600
1846	28338237 191 108851 108851 49 49.9 10 0 5760 5760 33177600
1847	28338428 191 108851 108851 49 49.9 10 0 5760 5760 33177600
1848	28338619 211 108833 109267 49 50 11 0 6400 12800 81920000
1849	28338830 191 108833 108833 49 49.9 10 0 6400 6400 40960000
1850	28339021 191 108833 108833 49 49.9 10 0 6400 6400 40960000
1851	28339212 191 108833 108833 49 49.9 10 0 6400 6400 40960000
1852	28339403 191 108833 108833 49 49.9 10 0 5760 5760 33177600
1853	28339594 191 108833 108833 49 49.9 10 0 5760 5760 33177600
1854	28339785 191 108833 108833 49 49.9 10 0 5760 5760 33177600
1855	28339976 191 108833 108833 49 49.9 10 0 5760 5760 33177600
1856	28340167 191 108833 108833 49 49.9 10 0 5760 5760 33177600
1857	28340358 211 108840 109267 49 50 11 0 6400 12800 81920000
1858	28340569 191 108840 108840 49 49.9 10 0 6400 6400 40960000
1859	28340760 191 108840 108840 49 49.9 10 0 6400 6400 40960000
1860	28340951 191 108840 108840 49 49.9 10 0 6400 6400 40960000
1861	28341142 191 108840 108840 49 49.9 10 0 5760 5760 33177600
1862	28341333 191 108840 108840 49 49.9 10 0 5760 5760 33177600
1863	28341524 191 108840 108840 49 49.9 10 0 5760 5760 33177600
1864	28341715 191 108840 108840 49 49.9 10 0 5760 5760 33177600
1865	28341906 191 108840 108840 49 49.9 10 0 5760 5760 33177600
1866	28342097 211 108841 109267 49 50 11 0 6400 12800 81920000
1867	28342308 191 108841 108841 49 49.9 10 0 6400 6400 40960000
1868	28342499 191 108841 108841 49 49.9 10 0 6400 6400 40960000
1869	28342690 191 108841 108841 49 49.9 10 0 6400 6400 40960000
1870	28342881 191 108841 108841 49 49.9 10 0 5760 5760 33177600
1871	28343072 191 108841 108841 49 49.9 10 0 5760 5760 33177600
1872	28343263 191 108841 108841 49 49.9 10 0 5760 5760 33177600
1873	28343454 191 108841 108841 49 49.9 10 0 5760 5760 33177600
1874	28343645 191 108841 108841 49 49.9 10 0 5760 5760 33177600
1875	28343836 211 108830 109267 49 50 11 0 6400 12800 81920000
1876	28344047 191 108830 108830 49 49.9 10 0 6400 6400 40960000
1877	28344238 191 108830 108830 49 49.9 10 0 6400 6400 40960000
1878	28344429 191 108830 108830 49 49.9 10 0 6400 6400 40960000
1879	28344620 191 108830 108830 49 49.9 10 0 5760 5760 33177600
1880	28344811 191 108830 108830 49 49.9 10 0 5760 5760 33177600
1881	28345002 191 108830 108830 49 49.9 10 0 5760 5760 33177600
1882	28345193 191 108830 108830 49 49.9 10 0 5760 5760 33177600
1883	28345384 191 108830 108830 49 49.9 10 0 5760 5760 33177600
1884	28345575 211 108825 109267 49 50 11 0 6400 12800 81920000
1885	28345786 191 108825 108825 49 49.9 10 0 6400 6400 40960000
1886	28345977 191 108825 108825 49 49.9 10 0 6400 6400 40960000
1887	28346168 191 108825 108825 49 49.9 10 0 6400 6400 40960000
1888	28346359 191 108825 108825 49 49.9 10 0 5760 5760 33177600
1889	28346550 191 108825 108825 49 49.9 10 0 5760 5760 33177600
1890	28346741 191 108825 108825 49 49.9 10 0 5760 5760 33177600
1891	28346932 191 108825 108825 49 49.9 10 0 5760 5760 33177600
1892	28347123 191 108825 108825 49 49.9 10 0 5760 5760 33177600
1893	28347314 211 108826 109267 49 50 11 0 6400 12800 81920000
1894	28347525 191 108826 108826 49 49.9 10 0 6400 6400 40960000
1895	28347716 191 108826 108826 49 49.9 10 0 6400 6400 40960000
1896	28347907 191 108826 108826 49 49.9 10 0 6400 6400 40960000
1897	28348098 191 108826 108826 49 49.9 10 0 5760 5760 33177600
1898	28348289 191 108826 108826 49 49.9 10 0 5760 5760 33177600
1899	28348480 191 108826 108826 49 49.9 10 0 5760 5760 33177600
1900	28348671 191 108826 108826 49 49.9 10 0 5760 5760 33177600
1901	28348862 191 108826 108826 49 49.9 10 0 5760 5760 33177600
1902	28349053 211 108836 109267 49 50 11 0 6400 12800 81920000
1903	28349264 191 108836 108836 49 49.9 10 0 6400 6400 40960000
1904	28349455 191 108836 108836 49 49.9 10 0 6400 6400 40960000
1905	28349646 191 108836 108836 49 49.9 10 0 6400 6400 40960000
1906	28349837 191 108836 108836 49 49.9 10 0 5760 5760 33177600
1907	28350028 191 108836 108836 49 49.9 10 0 5760 5760 33177600
1908	28350219 191 108836 108836 49 49.9 10 0 5760 5760 33177600
1909	28350410 191 108836 108836 49 49.9 10 0 5760 5760 33177600
1910	28350601 191 108836 108836 49 49.9 10 0 5760 5760 33177600
1911	28350792 174 108836 108836 49.1 49.9 9 0 5760 5760 33177600
1912	28350966 174 108836 108836 49.1 49.9 9 0 5440 5440 29593600
1913	28351140 174 108836 108836 49.1 49.9 9 0 5440 5440 29593600
1914	28351314 174 108836 108836 49.1 49.9 9 0 4320 4320 18662400
1915	28351488 174 108836 108836 49.1 49.9 9 0 4320 4320 18662400
1916	28351662 174 108836 108836 49.1 49.9 9 0 4320 4320 18662400
1917	28351836 191 109267 109267 49.1 50 10 0 6400 6400 40960000
1926	28352027 9301 109267 109267 0.1 50 500 0 0 0 0
1927	28361328 9301 109267 109267 0.1 50 500 0 0 0 0
1928	28370629 9301 109267 109267 0.1 50 500 0 0 0 0
1929	28379930 9301 109267 109267 0.1 50 500 0 0 0 0
1930	28389231 9301 109267 109267 0.1 50 500 0 0 0 0
1931	28398532 9301 109267 109267 0.1 50 500 0 0 0 0
1932	28407833 9301 109267 109267 0.1 50 500 0 0 0 0
1933	28417134 9301 109267 109267 0.1 50 500 0 0 0 0
1934	28426435 9301 109267 109267 0.1 50 500 0 0 0 0
1935	28435736 9301 109267 109267 0.1 50 500 0 0 0 0
1936	28445037 9301 109267 109267 0.1 50 500 0 0 0 0
1937	28454338 9301 109267 109267 0.1 50 500 0 0 0 0
1938	28463639 9301 109267 109267 0.1 50 500 0 0 0 0
1939	28472940 9301 109267 109267 0.1 50 500 0 0 0 0
1940	28482241 9301 109267 109267 0.1 50 500 0 0 0 0
1941	28491542 9301 109267 109267 0.1 50 500 0 0 0 0
1942	28500843 9301 109267 109267 0.1 50 500 0 0 0 0
1943	28510144 9301 109267 109267 0.1 50 500 0 0 0 0
1944	28519445 9301 109267 109267 0.1 50 500 0 0 0 0
1945	28528746 9301 109267 109267 0.1 50 500 0 0 0 0
1946	28538047 9301 109267 109267 0.1 50 500 0 0 0 0
1947	28547348 9301 109267 109267 0.1 50 500 0 0 0 0
1948	28556649 9301 109267 109267 0.1 50 500 0 0 0 0
1949	28565950 9301 109267 109267 0.1 50 500 0 0 0 0
1950	28575251 9301 109267 109267 0.1 50 500 0 0 0 0
1951	28584552 9301 109267 109267 0.1 50 500 0 0 0 0
1952	28593853 9301 109267 109267 0.1 50 500 0 0 0 0
1953	28603154 9301 109267 109267 0.1 50 500 0 0 0 0
1954	28612455 9301 109267 109267 0.1 50 500 0 0 0 0
1955	28621756 9301 109267 109267 0.1 50 500 0 0 0 0
1956	28631057 9301 109267 109267 0.1 50 500 0 0 0 0
1957	28640358 9301 109267 109267 0.1 50 500 0 0 0 0
1958	28649659 9301 109267 109267 0.1 50 500 0 0 0 0
1959	28658960 9301 109267 109267 0.1 50 500 0 0 0 0
1960	28668261 9301 109267 109267 0.1 50 500 0 0 0 0
1961	28677562 9301 109267 109267 0.1 50 500 0 0 0 0
1962	28686863 9301 109267 109267 0.1 50 500 0 0 0 0
1963	28696164 9301 109267 109267 0.1 50 500 0 0 0 0
1964	28705465 9301 109267 109267 0.1 50 500 0 0 0 0
1965	28714766 9301 109267 109267 0.1 50 500 0 0 0 0
1966	28724067 9301 109267 109267 0.1 50 500 0 0 0 0
1967	28733368 9301 109267 109267 0.1 50 500 0 0 0 0
1968	28742669 9301 109267 109267 0.1 50 500 0 0 0 0
1969	28751970 9301 109267 109267 0.1 50 500 0 0 0 0
1970	28761271 9301 109267 109267 0.1 50 500 0 0 0 0
1971	28770572 9301 109267 109267 0.1 50 500 0 0 0 0
1972	28779873 9301 109267 109267 0.1 50 500 0 0 0 0
1973	28789174 9301 109267 109267 0.1 50 500 0 0 0 0
1974	28798475 9301 109267 109267 0.1 50 500 0 0 0 0
1975	28807776 9301 109267 109267 0.1 50 500 0 0 0 0
1976	28817077 9301 109267 109267 0.1 50 500 0 0 0 0
1977	28826378 9301 109267 109267 0.1 50 500 0 0 0 0
1978	28835679 9301 109267 109267 0.1 50 500 0 0 0 0
1979	28844980 9301 109267 109267 0.1 50 500 0 0 0 0
1980	28854281 9301 109267 109267 0.1 50 500 0 0 0 0
1981	28863582 9301 109267 109267 0.1 50 500 0 0 0 0
1982	28872883 9301 109267 109267 0.1 50 500 0 0 0 0
1983	28882184 9301 109267 109267 0.1 50 500 0 0 0 0
1984	28891485 9301 109267 109267 0.1 50 500 0 0 0 0
1985	28900786 9301 109267 109267 0.1 50 500 0 0 0 0
1986	28910087 9301 109267 109267 0.1 50 500 0 0 0 0
1987	28919388 9301 109267 109267 0.1 50 500 0 0 0 0
1988	28928689 9301 109267 109267 0.1 50 500 0 0 0 0
1989	28937990 9301 109267 109267 0.1 50 500 0 0 0 0
1990	28947291 9301 109267 109267 0.1 50 500 0 0 0 0
1991	28956592 9301 109267 109267 0.1 50 500 0 0 0 0
1992	28965893 9301 109267 109267 0.1 50 500 0 0 0 0
1993	28975194 9301 109267 109267 0.1 50 500 0 0 0 0
1994	28984495 9301 109267 109267 0.1 50 500 0 0 0 0
1995	28993796 9301 109267 109267 0.1 50 500 0 0 0 0
1996	29003097 9301 109267 109267 0.1 50 500 0 0 0 0
1997	29012398 9301 109267 109267 0.1 50 500 0 0 0 0
1998	29021699 9301 109267 109267 0.1 50 500 0 0 0 0
1999	29031000 9301 109267 109267 0.1 50 500 0 0 0 0
2000	29040301 9301 109267 109267 0.1 50 500 0 0 0 0
2001	29049602 9301 109267 109267 0.1 50 500 0 0 0 0
2002	29058903 9301 109267 109267 0.1 50 500 0 0 0 0
2003	29068204 9301 109267 109267 0.1 50 500 0 0 0 0
2004	29077505 9301 109267 109267 0.1 50 500 0 0 0 0
2005	29086806 9301 109267 109267 0.1 50 500 0 0 0 0
2006	29096107 9301 109267 109267 0.1 50 500 0 0 0 0
2007	29105408 9301 109267 109267 0.1 50 500 0 0 0 0
2008	29114709 9301 109267 109267 0.1 50 500 0 0 0 0
2009	29124010 9301 109267 109267 0.1 50 500 0 0 0 0
2010	29133311 9301 109267 109267 0.1 50 500 0 0 0 0
2011	29142612 9301 109267 109267 0.1 50 500 0 0 0 0
2012	29151913 9301 109267 109267 0.1 50 500 0 0 0 0
2013	29161214 9301 109267 109267 0.1 50 500 0 0 0 0
2014	29170515 9301 109267 109267 0.1 50 500 0 0 0 0
2015	29179816 9301 109267 109267 0.1 50 500 0 0 0 0
2016	29189117 9301 109267 109267 0.1 50 500 0 0 0 0
2017	29198418 9301 109267 109267 0.1 50 500 0 0 0 0
2018	29207719 9301 109267 109267 0.1 50 500 0 0 0 0
2019	29217020 9301 109267 109267 0.1 50 500 0 0 0 0
2020	29226321 9301 109267 109267 0.1 50 500 0 0 0 0
2021	29235622 9301 109267 109267 0.1 50 500 0 0 0 0
2022	29244923 9301 109267 109267 0.1 50 500 0 0 0 0
2023	29254224 9301 109267 109267 0.1 50 500 0 0 0 0
2024	29263525 9301 109267 109267 0.1 50 500 0 0 0 0
2025	29272826 9301 109267 109267 0.1 50 500 0 0 0 0
2026	29282127 9301 109267 109267 0.1 50 500 0 0 0 0
2027	29291428 9301 109267 109267 0.1 50 500 0 0 0 0
2028	29300729 9301 109267 109267 0.1 50 500 0 0 0 0
2029	29310030 9301 109267 109267 0.1 50 500 0 0 0 0
2030	29319331 9301 109267 109267 0.1 50 500 0 0 0 0
2031	29328632 9301 109267 109267 0.1 50 500 0 0 0 0
2032	29337933 9301 109267 109267 0.1 50 500 0 0 0 0
2033	29347234 9301 109267 109267 0.1 50 500 0 0 0 0
2034	29356535 9301 109267 109267 0.1 50 500 0 0 0 0
2035	29365836 9301 109267 109267 0.1 50 500 0 0 0 0
2036	29375137 9301 109267 109267 0.1 50 500 0 0 0 0
2037	29384438 9301 109267 109267 0.1 50 500 0 0 0 0
2038	29393739 9301 109267 109267 0.1 50 500 0 0 0 0
2039	29403040 9301 109267 109267 0.1 50 500 0 0 0 0
2040	29412341 9301 109267 109267 0.1 50 500 0 0 0 0
2041	29421642 9301 109267 109267 0.1 50 500 0 0 0 0
2042	29430943 9301 109267 109267 0.1 50 500 0 0 0 0
2043	29440244 9301 109267 109267 0.1 50 500 0 0 0 0
2044	29449545 9301 109267 109267 0.1 50 500 0 0 0 0
2045	29458846 9301 109267 109267 0.1 50 500 0 0 0 0
2046	29468147 9301 109267 109267 0.1 50 500 0 0 0 0
2047	29477448 9301 109267 109267 0.1 50 500 0 0 0 0
2048	29486749 9301 109267 109267 0.1 50 500 0 0 0 0
2049	29496050 9301 109267 109267 0.1 50 500 0 0 0 0
2050	29505351 9301 109267 109267 0.1 50 500 0 0 0 0
2051	29514652 9301 109267 109267 0.1 50 500 0 0 0 0
2052	29523953 9301 109267 109267 0.1 50 500 0 0 0 0
2053	29533254 9301 109267 109267 0.1 50 500 0 0 0 0
2054	29542555 9301 109267 109267 0.1 50 500 0 0 0 0
2055	29551856 9301 109267 109267 0.1 50 500 0 0 0 0
2056	29561157 9301 109267 109267 0.1 50 500 0 0 0 0
2057	29570458 9301 109267 109267 0.1 50 500 0 0 0 0
2058	29579759 9301 109267 109267 0.1 50 500 0 0 0 0
2059	29589060 9301 109267 109267 0.1 50 500 0 0 0 0
2060	29598361 9301 109267 109267 0.1 50 500 0 0 0 0
2061	29607662 9301 109267 109267 0.1 50 500 0 0 0 0
2062	29616963 9301 109267 109267 0.1 50 500 0 0 0 0
2063	29626264 9301 109267 109267 0.1 50 500 0 0 0 0
2064	29635565 9301 109267 109267 0.1 50 500 0 0 0 0
2065	29644866 9301 109267 109267 0.1 50 500 0 0 0 0
2066	29654167 9301 109267 109267 0.1 50 500 0 0 0 0
2067	29663468 9301 109267 109267 0.1 50 500 0 0 0 0
2068	29672769 9301 109267 109267 0.1 50 500 0 0 0 0
2069	29682070 9301 109267 109267 0.1 50 500 0 0 0 0
2070	29691371 9301 109267 109267 0.1 50 500 0 0 0 0
2071	29700672 9301 109267 109267 0.1 50 500 0 0 0 0
2072	29709973 9301 109267 109267 0.1 50 500 0 0 0 0
2073	29719274 9301 109267 109267 0.1 50 500 0 0 0 0
2074	29728575 9301 109267 109267 0.1 50 500 0 0 0 0
2075	29737876 9301 109267 109267 0.1 50 500 0 0 0 0
2076	29747177 9301 109267 109267 0.1 50 500 0 0 0 0
2077	29756478 9301 109267 109267 0.1 50 500 0 0 0 0
2078	29765779 9301 109267 109267 0.1 50 500 0 0 0 0
2079	29775080 9301 109267 109267 0.1 50 500 0 0 0 0
2080	29784381 9301 109267 109267 0.1 50 500 0 0 0 0
2081	29793682 9301 109267 109267 0.1 50 500 0 0 0 0
2082	29802983 9301 109267 109267 0.1 50 500 0 0 0 0
2083	29812284 9301 109267 109267 0.1 50 500 0 0 0 0
2084	29821585 9301 109267 109267 0.1 50 500 0 0 0 0
2085	29830886 9301 109267 109267 0.1 50 500 0 0 0 0
2086	29840187 9301 109267 109267 0.1 50 500 0 0 0 0
2087	29849488 9301 109267 109267 0.1 50 500 0 0 0 0
2088	29858789 9301 109267 109267 0.1 50 500 0 0 0 0
2089	29868090 9301 109267 109267 0.1 50 500 0 0 0 0
2090	29877391 9301 109267 109267 0.1 50 500 0 0 0 0
2091	29886692 9301 109267 109267 0.1 50 500 0 0 0 0
2092	29895993 9301 109267 109267 0.1 50 500 0 0 0 0
2093	29905294 9301 109267 109267 0.1 50 500 0 0 0 0
2094	29914595 9301 109267 109267 0.1 50 500 0 0 0 0
2095	29923896 9301 109267 109267 0.1 50 500 0 0 0 0
2096	29933197 9301 109267 109267 0.1 50 500 0 0 0 0
2097	29942498 9301 109267 109267 0.1 50 500 0 0 0 0
2098	29951799 9301 109267 109267 0.1 50 500 0 0 0 0
2099	29961100 9301 109267 109267 0.1 50 500 0 0 0 0
2100	29970401 9301 109267 109267 0.1 50 500 0 0 0 0
2101	29979702 9301 109267 109267 0.1 50 500 0 0 0 0
2102	29989003 9301 109267 109267 0.1 50 500 0 0 0 0
2103	29998304 9301 109267 109267 0.1 50 500 0 0 0 0
2104	30007605 9301 109267 109267 0.1 50 500 0 0 0 0
2105	30016906 9301 109267 109267 0.1 50 500 0 0 0 0

