file 328512 1736226785                                          
version 3
run QFITimeAux-0-20250107-02:13:00-710501
attr configname QFITimeAux
attr datetime 20250107-02:13:00
attr datetimef 20250107-021300
attr experiment QFITimeAux
attr inifile omnetpp.ini
attr iterationvars ""
attr iterationvarsd ""
attr iterationvarsf ""
attr measurement ""
attr network TimeSyncUEUE
attr processid 710501
attr repetition 0
attr replication #0
attr resultdir results
attr runnumber 0
attr seedset 0
config image-path ../../../inet4.5-2/images
config extends DL3,QFI
config extends DL
config *.FGS.**.clock.typename IdealClock
config *.SwitchDN.clock.oscillator.typename RandomDriftOscillator
config **.clock.oscillator.typename ConstantDriftOscillator
config *.SwitchDN.clock.oscillator.driftRate -100ppm
config *.SwitchDN.clock.oscillator.changeInterval 12.5ms
config *.SwitchDN.clock.oscillator.driftRateChange "uniform(-10ppm, 10ppm)"
config *.*.clock.oscillator.driftRate 00ppm
config *.**.hasTimeSynchronization true
config *.SwitchDN.gptp.gptpNodeType "\"MASTER_NODE\""
config *.SwitchDN.gptp.masterPorts "[\"eth0\",\"eth1\"]"
config *.SwitchDN.gptp.slavePort "\"\""
config *.SwitchS*.gptp.slavePort "\"eth0\""
config *.SwitchS1.gptp.masterPorts "[\"eth1\",\"eth2\",\"eth3\",\"eth4\"]"
config *.SwitchS2.gptp.masterPorts "[\"eth1\",\"eth2\"]"
config *.SwitchS3.gptp.masterPorts "[\"eth1\",\"eth2\"]"
config *.FGS.nwtt[*].gptp.domain[*].slavePort "\"eth0\""
config *.FGS.nwtt[*].gptp.domain[*].masterPorts "[\"tt0\",\"tt1\",\"tt2\"]"
config *.FGS.dstt[*].gptp.domain[*].slavePort "\"tt0\""
config *.FGS.dstt[*].gptp.domain[*].masterPorts "[\"eth0\"]"
config **.referenceClock "\"SwitchDN.clock\""
config *.visualizer.dataLinkVisualizer[0].displayLinks true
config *.visualizer.dataLinkVisualizer[0].activityLevel "\"protocol\""
config *.visualizer.dataLinkVisualizer[0].packetFilter "\"GptpSync\""
config *.visualizer.dataLinkVisualizer[0].lineColor "\"blue2\""
config *.visualizer.numInfoVisualizers 1
config *.visualizer.infoVisualizer[0].modules "\"*.*.clock\""
config *.SwitchDN.clock.displayStringTextFormat "\"time: %T\""
config *.*.clock.displayStringTextFormat "\"diff: %d\""
config extends Apps0
config *.FGS.*.delayQFI "{3: rngProvider(\"histogramContainer\",\"s26\"),\n\t\t\t\t\t\t4: rngProvider(\"histogramContainer\",\"s20\"),\n\t\t\t\t\t\t66: rngProvider(\"histogramContainer\",\"s4\"),\n\t\t\t\t\t\t80: rngProvider(\"histogramContainer\",\"s6\"),\n\t\t\t\t\t\t83: rngProvider(\"histogramContainer\",\"s25\"),\n\t\t\t\t\t\t86: rngProvider(\"histogramContainer\",\"s19\"),\n\t\t\t\t\t\t87: rngProvider(\"histogramContainer\",\"gPTP\")}"
config *.*.hasOutgoingStreams true
config *.*.hasEgressTrafficShaping true
config *.PLC.bridging.streamIdentifier.identifier.mapping "[{stream: \"pcp5\", packetFilter: expr(!has(gptp) && udp.destPort > 1090)},{stream: \"pcp6\", packetFilter: expr(!has(gptp) && udp.destPort < 1090)}]"
config *.PLC.bridging.streamCoder.encoder.mapping "[{stream: \"pcp5\", pcp: 5},{stream: \"pcp\", pcp: 6}]"
config *.Sensor*.bridging.streamIdentifier.identifier.mapping "[{stream: \"pcp1\", packetFilter: expr(!has(gptp) && udp.destPort < 1090)}]"
config *.Sensor*.bridging.streamCoder.encoder.mapping "[{stream: \"pcp1\", pcp: 1}]"
config *.Camera*.bridging.streamIdentifier.identifier.mapping "[{stream: \"pcp3\", packetFilter: expr(!has(gptp) && udp.destPort < 1090)}]"
config *.Camera*.bridging.streamCoder.encoder.mapping "[{stream: \"pcp3\", pcp: 3}]"
config *.Esteira*.bridging.streamIdentifier.identifier.mapping "[{stream: \"pcp0\", packetFilter: expr(!has(gptp) && udp.destPort < 1090)}]"
config *.Esteira*.bridging.streamCoder.encoder.mapping "[{stream: \"pcp0\", pcp: 0}]"
config *.Robo*.bridging.streamIdentifier.identifier.mapping "[{stream: \"pcp4\", packetFilter: expr(!has(gptp) && udp.destPort < 1090)}]"
config *.Robo*.bridging.streamCoder.encoder.mapping "[{stream: \"pcp4\", pcp: 4}]"
config *.Sensor*.numApps 1
config *.Sensor*.hasOutgoingStreams true
config *.Sensor*.app[0].typename UdpSourceApp
config *.SensorS1.app[0].display-name NovaPeca
config *.SensorS3.app[0].display-name PecasNaCaixa
config *.Sensor*.app[0].io.destAddress "\"PLC\""
config *.SensorS1.app[0].io.destPort 1011
config *.SensorS3.app[0].io.destPort 1031
config *.SensorS*.app[0].source.packetLength 64B
config *.SensorS*.app[0].source.productionInterval 20ms
config *.SensorS*.app[0].source.initialProductionOffset 2s
config *.CameraS1.numApps 1
config *.CameraS1.hasOutgoingStreams true
config *.CameraS1.app[0].io.destAddress "\"PLC\""
config *.CameraS1.app[0].typename UdpSourceApp
config *.CameraS1.app[0].display-name StatusPeca
config *.CameraS1.app[0].io.destPort 1012
config *.CameraS1.app[0].source.packetLength "1500B - 54B"
config *.CameraS1.app[0].source.productionInterval 15ms
config *.CameraS1.app[0].source.initialProductionOffset 2.0s
config *.RoboS*.numApps 2
config *.RoboS*.hasOutgoingStreams true
config *.RoboS*.hasIncomingStreams true
config *.RoboS*.app[0].io.destAddress "\"PLC\""
config *.RoboS*.app[0].typename UdpSourceApp
config *.RoboS1.app[0].display-name S2OuDesc
config *.RoboS2.app[0].display-name S3
config *.RoboS1.app[0].io.destPort 1014
config *.RoboS2.app[0].io.destPort 1022
config *.RoboS*.app[0].source.packetLength 128B
config *.RoboS*.app[0].source.productionInterval 5ms
config *.RoboS*.app[1].typename UdpSinkApp
config *.RoboS*.app[1].display-name fromPLC
config *.RoboS1.app[1].io.localPort 1013
config *.RoboS2.app[1].io.localPort 1021
config *.RoboS*.app[0].source.initialProductionOffset 2.00s
config *.PLC.numApps 13
config *.PLC.hasOutgoingStreams true
config *.PLC.hasIncomingStreams true
config *.PLC.app[0].typename UdpSinkApp
config *.PLC.app[1].typename UdpSinkApp
config *.PLC.app[2].typename UdpSinkApp
config *.PLC.app[3].typename UdpSinkApp
config *.PLC.app[4].typename UdpSinkApp
config *.PLC.app[5].typename UdpSourceApp
config *.PLC.app[6].typename UdpSourceApp
config *.PLC.app[7].typename UdpSourceApp
config *.PLC.app[8].typename UdpSinkApp
config *.PLC.app[9].typename UdpSinkApp
config *.PLC.app[10].typename UdpSinkApp
config *.PLC.app[11].typename UdpSourceApp
config *.PLC.app[12].typename UdpSourceApp
config *.PLC.app[0].display-name fromSensorS1
config *.PLC.app[0].io.localPort 1011
config *.PLC.app[1].display-name fromCameraS1
config *.PLC.app[1].io.localPort 1012
config *.PLC.app[2].display-name fromRoboS1
config *.PLC.app[2].io.localPort 1014
config *.PLC.app[3].display-name fromRoboS2
config *.PLC.app[3].io.localPort 1022
config *.PLC.app[4].display-name fromSensorS3
config *.PLC.app[4].io.localPort 1031
config *.PLC.app[5].display-name ToRoboS1
config *.PLC.app[5].io.destAddress "\"RoboS1\""
config *.PLC.app[5].io.destPort 1013
config *.PLC.app[5].source.packetLength 200B
config *.PLC.app[5].source.productionInterval 5ms
config *.PLC.app[6].display-name ToRoboS2
config *.PLC.app[6].io.destAddress "\"RoboS2\""
config *.PLC.app[6].io.destPort 1021
config *.PLC.app[6].source.packetLength 200B
config *.PLC.app[6].source.productionInterval 5ms
config *.PLC.app[7].display-name ToEsteiraS3
config *.PLC.app[7].io.destAddress "\"EsteiraS3\""
config *.PLC.app[7].io.destPort 1093
config *.PLC.app[7].source.packetLength 50B
config *.PLC.app[7].source.productionInterval 5ms
config *.PLC.app[5].source.initialProductionOffset 2.0s
config *.PLC.app[6].source.initialProductionOffset 2.0s
config *.PLC.app[7].source.initialProductionOffset 2.0s
config *.PLC.app[8].display-name fromEsteiraS1
config *.PLC.app[8].io.localPort 1081
config *.PLC.app[9].display-name fromEsteiraS2
config *.PLC.app[9].io.localPort 1082
config *.PLC.app[10].display-name fromEsteiraS3
config *.PLC.app[10].io.localPort 1083
config *.PLC.app[11].display-name ToEsteiraS1
config *.PLC.app[11].io.destAddress "\"EsteiraS1\""
config *.PLC.app[11].io.destPort 1091
config *.PLC.app[11].source.packetLength 50B
config *.PLC.app[11].source.productionInterval 5ms
config *.PLC.app[12].display-name ToEsteiraS2
config *.PLC.app[12].io.destAddress "\"EsteiraS2\""
config *.PLC.app[12].io.destPort 1092
config *.PLC.app[12].source.packetLength 50B
config *.PLC.app[12].source.productionInterval 5ms
config *.PLC.app[11].source.initialProductionOffset 2.0s
config *.PLC.app[12].source.initialProductionOffset 2.0s
config *.EsteiraS*.numApps 2
config *.EsteiraS*.hasIncomingStreams true
config *.EsteiraS*.app[0].typename UdpSinkApp
config *.EsteiraS*.app[1].typename UdpSourceApp
config *.EsteiraS*.app[0].typename UdpSinkApp
config *.EsteiraS*.app[0].display-name fromPLC
config *.EsteiraS1.app[0].io.localPort 1091
config *.EsteiraS2.app[0].io.localPort 1092
config *.EsteiraS3.app[0].io.localPort 1093
config *.EsteiraS*.app[1].display-name toPLC
config *.EsteiraS*.app[1].io.destAddress "\"PLC\""
config *.EsteiraS1.app[1].io.destPort 1081
config *.EsteiraS2.app[1].io.destPort 1082
config *.EsteiraS3.app[1].io.destPort 1083
config *.EsteiraS*.app[1].source.packetLength 50B
config *.EsteiraS*.app[1].source.productionInterval 5ms
config *.EsteiraS*.app[1].source.initialProductionOffset 2.0s
config network TimeSyncUEUE
config num-rngs 1
config sim-time-limit 50s
config **.TSNAppsTableFile "xmldoc(\"config/app.xml\")"
config *.histogramContainer.histograms "{s1: \"../../../deterministic6g_data/PD-Wireless-5G-1/s1-UL_wall.xml\",\n\t\t\t\t\t\t\t\t\ts24: \"../../../deterministic6g_data/PD-Wireless-5G-1/s24-UL_wall.xml\",\n\t\t\t\t\t\t\t\t\ts3: \"../../../deterministic6g_data/PD-Wireless-5G-1/s3-UL_wall.xml\",\n\t\t\t\t\t\t\t\t\ts4: \"../../../deterministic6g_data/PD-Wireless-5G-1/s4-UL_wall.xml\",\n\t\t\t\t\t\t\t\t\ts6: \"../../../deterministic6g_data/PD-Wireless-5G-1/s6-UL_wall.xml\",\n\t\t\t\t\t\t\t\t\ts7: \"../../../deterministic6g_data/PD-Wireless-5G-1/s7-UL_wall.xml\",\n\t\t\t\t\t\t\t\t\ts8: \"../../../deterministic6g_data/PD-Wireless-5G-1/s8-UL_wall.xml\",\n\t\t\t\t\t\t\t\t\ts9: \"../../../deterministic6g_data/PD-Wireless-5G-1/s9-UL_wall.xml\",\n\t\t\t\t\t\t\t\t\ts10: \"../../../deterministic6g_data/PD-Wireless-5G-1/s10-DL_wall.xml\",\n\t\t\t\t\t\t\t\t\ts19: \"../../../deterministic6g_data/PD-Wireless-5G-1/19M_cut.xml\",\n\t\t\t\t\t\t\t\t\ts20: \"../../../deterministic6g_data/PD-Wireless-5G-1/s20-UL_wall.xml\",\n\t\t\t\t\t\t\t\t\ts25: \"../../../deterministic6g_data/PD-Wireless-5G-1/25M_cut.xml\",\n\t\t\t\t\t\t\t\t\ts26: \"../../../deterministic6g_data/PD-Wireless-5G-1/s26-UL_wall.xml\",\n\t\t\t\t\t\t\t\t\tgPTP: \"../../../deterministic6g_data/PD-Wireless-5G-1/gPTP_cut.xml\"}"
config *.FGS.d*.delayUplink "rngProvider(\"histogramContainer\",\"s1\")"
config *.FGS.n*.delayDownlink "rngProvider(\"histogramContainer\",\"s10\")"
config *.FGS.d*.delayD2D "rngProvider(\"histogramContainer\",\"s1\")"
config *.visualizer.typename IntegratedMultiCanvasVisualizer
config *.visualizer.infoVisualizer[*].displayInfos true

vector 0 TimeSyncUEUE.SwitchS1.eth[0].macLayer.queue queueLength:vector ETV
attr autoWarmupFilter false
attr interpolationmode sample-hold
attr recordingmode vector
attr source "warmup(atomic(constant0(localSignal(packetPushEnded)) + count(localSignal(packetPushStarted)) - count(localSignal(packetPulled)) - count(localSignal(packetRemoved)) - count(localSignal(packetDropped))))"
attr title "queue length"
attr unit pk
vector 1 TimeSyncUEUE.SwitchS1.eth[0].macLayer.queue queueBitLength:vector ETV
attr autoWarmupFilter false
attr interpolationmode sample-hold
attr recordingmode vector
attr source "warmup(atomic(constant0(localSignal(packetPushEnded)) + sum(packetLength(localSignal(packetPushStarted))) - sum(packetLength(localSignal(packetPulled))) - sum(packetLength(localSignal(packetRemoved))) - sum(packetLength(localSignal(packetDropped)))))"
attr title "queue bit length"
attr unit b
vector 2 TimeSyncUEUE.SwitchS1.eth[0].macLayer.queue.queue[0] queueLength:vector ETV
attr autoWarmupFilter false
attr interpolationmode sample-hold
attr recordingmode vector
attr source "warmup(atomic(constant0(packetPushEnded) + count(packetPushStarted) - count(packetPulled) - count(packetRemoved) - count(packetDropped)))"
attr title "queue length"
attr unit pk
vector 3 TimeSyncUEUE.SwitchS1.eth[0].macLayer.queue.queue[0] queueBitLength:vector ETV
attr autoWarmupFilter false
attr interpolationmode sample-hold
attr recordingmode vector
attr source "warmup(atomic(constant0(packetPushEnded) + sum(packetLength(packetPushStarted)) - sum(packetLength(packetPulled)) - sum(packetLength(packetRemoved)) - sum(packetLength(packetDropped))))"
attr title "queue bit length"
attr unit b
vector 4 TimeSyncUEUE.SwitchS1.eth[0].macLayer.queue.queue[1] queueLength:vector ETV
attr autoWarmupFilter false
attr interpolationmode sample-hold
attr recordingmode vector
attr source "warmup(atomic(constant0(packetPushEnded) + count(packetPushStarted) - count(packetPulled) - count(packetRemoved) - count(packetDropped)))"
attr title "queue length"
attr unit pk
vector 5 TimeSyncUEUE.SwitchS1.eth[0].macLayer.queue.queue[1] queueBitLength:vector ETV
attr autoWarmupFilter false
attr interpolationmode sample-hold
attr recordingmode vector
attr source "warmup(atomic(constant0(packetPushEnded) + sum(packetLength(packetPushStarted)) - sum(packetLength(packetPulled)) - sum(packetLength(packetRemoved)) - sum(packetLength(packetDropped))))"
attr title "queue bit length"
attr unit b
vector 6 TimeSyncUEUE.SwitchS1.eth[0].macLayer.queue.queue[2] queueLength:vector ETV
attr autoWarmupFilter false
attr interpolationmode sample-hold
attr recordingmode vector
attr source "warmup(atomic(constant0(packetPushEnded) + count(packetPushStarted) - count(packetPulled) - count(packetRemoved) - count(packetDropped)))"
attr title "queue length"
attr unit pk
vector 7 TimeSyncUEUE.SwitchS1.eth[0].macLayer.queue.queue[2] queueBitLength:vector ETV
attr autoWarmupFilter false
attr interpolationmode sample-hold
attr recordingmode vector
attr source "warmup(atomic(constant0(packetPushEnded) + sum(packetLength(packetPushStarted)) - sum(packetLength(packetPulled)) - sum(packetLength(packetRemoved)) - sum(packetLength(packetDropped))))"
attr title "queue bit length"
attr unit b
vector 8 TimeSyncUEUE.SwitchS1.eth[0].macLayer.queue.queue[3] queueLength:vector ETV
attr autoWarmupFilter false
attr interpolationmode sample-hold
attr recordingmode vector
attr source "warmup(atomic(constant0(packetPushEnded) + count(packetPushStarted) - count(packetPulled) - count(packetRemoved) - count(packetDropped)))"
attr title "queue length"
attr unit pk
vector 9 TimeSyncUEUE.SwitchS1.eth[0].macLayer.queue.queue[3] queueBitLength:vector ETV
attr autoWarmupFilter false
attr interpolationmode sample-hold
attr recordingmode vector
attr source "warmup(atomic(constant0(packetPushEnded) + sum(packetLength(packetPushStarted)) - sum(packetLength(packetPulled)) - sum(packetLength(packetRemoved)) - sum(packetLength(packetDropped))))"
attr title "queue bit length"
attr unit b
vector 10 TimeSyncUEUE.SwitchS1.eth[0].macLayer.queue.queue[4] queueLength:vector ETV
attr autoWarmupFilter false
attr interpolationmode sample-hold
attr recordingmode vector
attr source "warmup(atomic(constant0(packetPushEnded) + count(packetPushStarted) - count(packetPulled) - count(packetRemoved) - count(packetDropped)))"
attr title "queue length"
attr unit pk
vector 11 TimeSyncUEUE.SwitchS1.eth[0].macLayer.queue.queue[4] queueBitLength:vector ETV
attr autoWarmupFilter false
attr interpolationmode sample-hold
attr recordingmode vector
attr source "warmup(atomic(constant0(packetPushEnded) + sum(packetLength(packetPushStarted)) - sum(packetLength(packetPulled)) - sum(packetLength(packetRemoved)) - sum(packetLength(packetDropped))))"
attr title "queue bit length"
attr unit b
vector 12 TimeSyncUEUE.SwitchS1.eth[0].macLayer.queue.queue[5] queueLength:vector ETV
attr autoWarmupFilter false
attr interpolationmode sample-hold
attr recordingmode vector
attr source "warmup(atomic(constant0(packetPushEnded) + count(packetPushStarted) - count(packetPulled) - count(packetRemoved) - count(packetDropped)))"
attr title "queue length"
attr unit pk
vector 13 TimeSyncUEUE.SwitchS1.eth[0].macLayer.queue.queue[5] queueBitLength:vector ETV
attr autoWarmupFilter false
attr interpolationmode sample-hold
attr recordingmode vector
attr source "warmup(atomic(constant0(packetPushEnded) + sum(packetLength(packetPushStarted)) - sum(packetLength(packetPulled)) - sum(packetLength(packetRemoved)) - sum(packetLength(packetDropped))))"
attr title "queue bit length"
attr unit b
vector 14 TimeSyncUEUE.SwitchS1.eth[0].macLayer.queue.queue[6] queueLength:vector ETV
attr autoWarmupFilter false
attr interpolationmode sample-hold
attr recordingmode vector
attr source "warmup(atomic(constant0(packetPushEnded) + count(packetPushStarted) - count(packetPulled) - count(packetRemoved) - count(packetDropped)))"
attr title "queue length"
attr unit pk
vector 15 TimeSyncUEUE.SwitchS1.eth[0].macLayer.queue.queue[6] queueBitLength:vector ETV
attr autoWarmupFilter false
attr interpolationmode sample-hold
attr recordingmode vector
attr source "warmup(atomic(constant0(packetPushEnded) + sum(packetLength(packetPushStarted)) - sum(packetLength(packetPulled)) - sum(packetLength(packetRemoved)) - sum(packetLength(packetDropped))))"
attr title "queue bit length"
attr unit b
vector 16 TimeSyncUEUE.SwitchS1.eth[0].macLayer.queue.queue[7] queueLength:vector ETV
attr autoWarmupFilter false
attr interpolationmode sample-hold
attr recordingmode vector
attr source "warmup(atomic(constant0(packetPushEnded) + count(packetPushStarted) - count(packetPulled) - count(packetRemoved) - count(packetDropped)))"
attr title "queue length"
attr unit pk
vector 17 TimeSyncUEUE.SwitchS1.eth[0].macLayer.queue.queue[7] queueBitLength:vector ETV
attr autoWarmupFilter false
attr interpolationmode sample-hold
attr recordingmode vector
attr source "warmup(atomic(constant0(packetPushEnded) + sum(packetLength(packetPushStarted)) - sum(packetLength(packetPulled)) - sum(packetLength(packetRemoved)) - sum(packetLength(packetDropped))))"
attr title "queue bit length"
attr unit b
vector 18 TimeSyncUEUE.SwitchS1.eth[0].phyLayer.interFrameGapInserter interpacketGap:vector ETV
attr interpolationmode sample-hold
attr recordingmode vector
attr source "count(interpacketGapStarted) - count(interpacketGapEnded)"
attr title "interpacket gap state"
attr type int
vector 19 TimeSyncUEUE.SwitchS1.eth[0].phyLayer.transmitter transmitting:vector ETV
attr interpolationmode sample-hold
attr recordingmode vector
attr source "count(transmissionStarted) - count(transmissionEnded)"
attr title "transmitting state"
attr type int
vector 20 TimeSyncUEUE.SwitchS1.eth[1].macLayer.queue queueLength:vector ETV
attr autoWarmupFilter false
attr interpolationmode sample-hold
attr recordingmode vector
attr source "warmup(atomic(constant0(localSignal(packetPushEnded)) + count(localSignal(packetPushStarted)) - count(localSignal(packetPulled)) - count(localSignal(packetRemoved)) - count(localSignal(packetDropped))))"
attr title "queue length"
attr unit pk
vector 21 TimeSyncUEUE.SwitchS1.eth[1].macLayer.queue queueBitLength:vector ETV
attr autoWarmupFilter false
attr interpolationmode sample-hold
attr recordingmode vector
attr source "warmup(atomic(constant0(localSignal(packetPushEnded)) + sum(packetLength(localSignal(packetPushStarted))) - sum(packetLength(localSignal(packetPulled))) - sum(packetLength(localSignal(packetRemoved))) - sum(packetLength(localSignal(packetDropped)))))"
attr title "queue bit length"
attr unit b
vector 22 TimeSyncUEUE.SwitchS1.eth[1].macLayer.queue.queue[0] queueLength:vector ETV
attr autoWarmupFilter false
attr interpolationmode sample-hold
attr recordingmode vector
attr source "warmup(atomic(constant0(packetPushEnded) + count(packetPushStarted) - count(packetPulled) - count(packetRemoved) - count(packetDropped)))"
attr title "queue length"
attr unit pk
vector 23 TimeSyncUEUE.SwitchS1.eth[1].macLayer.queue.queue[0] queueBitLength:vector ETV
attr autoWarmupFilter false
attr interpolationmode sample-hold
attr recordingmode vector
attr source "warmup(atomic(constant0(packetPushEnded) + sum(packetLength(packetPushStarted)) - sum(packetLength(packetPulled)) - sum(packetLength(packetRemoved)) - sum(packetLength(packetDropped))))"
attr title "queue bit length"
attr unit b
vector 24 TimeSyncUEUE.SwitchS1.eth[1].macLayer.queue.queue[1] queueLength:vector ETV
attr autoWarmupFilter false
attr interpolationmode sample-hold
attr recordingmode vector
attr source "warmup(atomic(constant0(packetPushEnded) + count(packetPushStarted) - count(packetPulled) - count(packetRemoved) - count(packetDropped)))"
attr title "queue length"
attr unit pk
vector 25 TimeSyncUEUE.SwitchS1.eth[1].macLayer.queue.queue[1] queueBitLength:vector ETV
attr autoWarmupFilter false
attr interpolationmode sample-hold
attr recordingmode vector
attr source "warmup(atomic(constant0(packetPushEnded) + sum(packetLength(packetPushStarted)) - sum(packetLength(packetPulled)) - sum(packetLength(packetRemoved)) - sum(packetLength(packetDropped))))"
attr title "queue bit length"
attr unit b
vector 26 TimeSyncUEUE.SwitchS1.eth[1].macLayer.queue.queue[2] queueLength:vector ETV
attr autoWarmupFilter false
attr interpolationmode sample-hold
attr recordingmode vector
attr source "warmup(atomic(constant0(packetPushEnded) + count(packetPushStarted) - count(packetPulled) - count(packetRemoved) - count(packetDropped)))"
attr title "queue length"
attr unit pk
vector 27 TimeSyncUEUE.SwitchS1.eth[1].macLayer.queue.queue[2] queueBitLength:vector ETV
attr autoWarmupFilter false
attr interpolationmode sample-hold
attr recordingmode vector
attr source "warmup(atomic(constant0(packetPushEnded) + sum(packetLength(packetPushStarted)) - sum(packetLength(packetPulled)) - sum(packetLength(packetRemoved)) - sum(packetLength(packetDropped))))"
attr title "queue bit length"
attr unit b
vector 28 TimeSyncUEUE.SwitchS1.eth[1].macLayer.queue.queue[3] queueLength:vector ETV
attr autoWarmupFilter false
attr interpolationmode sample-hold
attr recordingmode vector
attr source "warmup(atomic(constant0(packetPushEnded) + count(packetPushStarted) - count(packetPulled) - count(packetRemoved) - count(packetDropped)))"
attr title "queue length"
attr unit pk
vector 29 TimeSyncUEUE.SwitchS1.eth[1].macLayer.queue.queue[3] queueBitLength:vector ETV
attr autoWarmupFilter false
attr interpolationmode sample-hold
attr recordingmode vector
attr source "warmup(atomic(constant0(packetPushEnded) + sum(packetLength(packetPushStarted)) - sum(packetLength(packetPulled)) - sum(packetLength(packetRemoved)) - sum(packetLength(packetDropped))))"
attr title "queue bit length"
attr unit b
vector 30 TimeSyncUEUE.SwitchS1.eth[1].macLayer.queue.queue[4] queueLength:vector ETV
attr autoWarmupFilter false
attr interpolationmode sample-hold
attr recordingmode vector
attr source "warmup(atomic(constant0(packetPushEnded) + count(packetPushStarted) - count(packetPulled) - count(packetRemoved) - count(packetDropped)))"
attr title "queue length"
attr unit pk
vector 31 TimeSyncUEUE.SwitchS1.eth[1].macLayer.queue.queue[4] queueBitLength:vector ETV
attr autoWarmupFilter false
attr interpolationmode sample-hold
attr recordingmode vector
attr source "warmup(atomic(constant0(packetPushEnded) + sum(packetLength(packetPushStarted)) - sum(packetLength(packetPulled)) - sum(packetLength(packetRemoved)) - sum(packetLength(packetDropped))))"
attr title "queue bit length"
attr unit b
vector 32 TimeSyncUEUE.SwitchS1.eth[1].macLayer.queue.queue[5] queueLength:vector ETV
attr autoWarmupFilter false
attr interpolationmode sample-hold
attr recordingmode vector
attr source "warmup(atomic(constant0(packetPushEnded) + count(packetPushStarted) - count(packetPulled) - count(packetRemoved) - count(packetDropped)))"
attr title "queue length"
attr unit pk
vector 33 TimeSyncUEUE.SwitchS1.eth[1].macLayer.queue.queue[5] queueBitLength:vector ETV
attr autoWarmupFilter false
attr interpolationmode sample-hold
attr recordingmode vector
attr source "warmup(atomic(constant0(packetPushEnded) + sum(packetLength(packetPushStarted)) - sum(packetLength(packetPulled)) - sum(packetLength(packetRemoved)) - sum(packetLength(packetDropped))))"
attr title "queue bit length"
attr unit b
vector 34 TimeSyncUEUE.SwitchS1.eth[1].macLayer.queue.queue[6] queueLength:vector ETV
attr autoWarmupFilter false
attr interpolationmode sample-hold
attr recordingmode vector
attr source "warmup(atomic(constant0(packetPushEnded) + count(packetPushStarted) - count(packetPulled) - count(packetRemoved) - count(packetDropped)))"
attr title "queue length"
attr unit pk
vector 35 TimeSyncUEUE.SwitchS1.eth[1].macLayer.queue.queue[6] queueBitLength:vector ETV
attr autoWarmupFilter false
attr interpolationmode sample-hold
attr recordingmode vector
attr source "warmup(atomic(constant0(packetPushEnded) + sum(packetLength(packetPushStarted)) - sum(packetLength(packetPulled)) - sum(packetLength(packetRemoved)) - sum(packetLength(packetDropped))))"
attr title "queue bit length"
attr unit b
vector 36 TimeSyncUEUE.SwitchS1.eth[1].macLayer.queue.queue[7] queueLength:vector ETV
attr autoWarmupFilter false
attr interpolationmode sample-hold
attr recordingmode vector
attr source "warmup(atomic(constant0(packetPushEnded) + count(packetPushStarted) - count(packetPulled) - count(packetRemoved) - count(packetDropped)))"
attr title "queue length"
attr unit pk
vector 37 TimeSyncUEUE.SwitchS1.eth[1].macLayer.queue.queue[7] queueBitLength:vector ETV
attr autoWarmupFilter false
attr interpolationmode sample-hold
attr recordingmode vector
attr source "warmup(atomic(constant0(packetPushEnded) + sum(packetLength(packetPushStarted)) - sum(packetLength(packetPulled)) - sum(packetLength(packetRemoved)) - sum(packetLength(packetDropped))))"
attr title "queue bit length"
attr unit b
vector 38 TimeSyncUEUE.SwitchS1.eth[1].phyLayer.interFrameGapInserter interpacketGap:vector ETV
attr interpolationmode sample-hold
attr recordingmode vector
attr source "count(interpacketGapStarted) - count(interpacketGapEnded)"
attr title "interpacket gap state"
attr type int
vector 39 TimeSyncUEUE.SwitchS1.eth[1].phyLayer.transmitter transmitting:vector ETV
attr interpolationmode sample-hold
attr recordingmode vector
attr source "count(transmissionStarted) - count(transmissionEnded)"
attr title "transmitting state"
attr type int
vector 40 TimeSyncUEUE.SwitchS1.eth[2].macLayer.queue queueLength:vector ETV
attr autoWarmupFilter false
attr interpolationmode sample-hold
attr recordingmode vector
attr source "warmup(atomic(constant0(localSignal(packetPushEnded)) + count(localSignal(packetPushStarted)) - count(localSignal(packetPulled)) - count(localSignal(packetRemoved)) - count(localSignal(packetDropped))))"
attr title "queue length"
attr unit pk
vector 41 TimeSyncUEUE.SwitchS1.eth[2].macLayer.queue queueBitLength:vector ETV
attr autoWarmupFilter false
attr interpolationmode sample-hold
attr recordingmode vector
attr source "warmup(atomic(constant0(localSignal(packetPushEnded)) + sum(packetLength(localSignal(packetPushStarted))) - sum(packetLength(localSignal(packetPulled))) - sum(packetLength(localSignal(packetRemoved))) - sum(packetLength(localSignal(packetDropped)))))"
attr title "queue bit length"
attr unit b
vector 42 TimeSyncUEUE.SwitchS1.eth[2].macLayer.queue.queue[0] queueLength:vector ETV
attr autoWarmupFilter false
attr interpolationmode sample-hold
attr recordingmode vector
attr source "warmup(atomic(constant0(packetPushEnded) + count(packetPushStarted) - count(packetPulled) - count(packetRemoved) - count(packetDropped)))"
attr title "queue length"
attr unit pk
vector 43 TimeSyncUEUE.SwitchS1.eth[2].macLayer.queue.queue[0] queueBitLength:vector ETV
attr autoWarmupFilter false
attr interpolationmode sample-hold
attr recordingmode vector
attr source "warmup(atomic(constant0(packetPushEnded) + sum(packetLength(packetPushStarted)) - sum(packetLength(packetPulled)) - sum(packetLength(packetRemoved)) - sum(packetLength(packetDropped))))"
attr title "queue bit length"
attr unit b
vector 44 TimeSyncUEUE.SwitchS1.eth[2].macLayer.queue.queue[1] queueLength:vector ETV
attr autoWarmupFilter false
attr interpolationmode sample-hold
attr recordingmode vector
attr source "warmup(atomic(constant0(packetPushEnded) + count(packetPushStarted) - count(packetPulled) - count(packetRemoved) - count(packetDropped)))"
attr title "queue length"
attr unit pk
vector 45 TimeSyncUEUE.SwitchS1.eth[2].macLayer.queue.queue[1] queueBitLength:vector ETV
attr autoWarmupFilter false
attr interpolationmode sample-hold
attr recordingmode vector
attr source "warmup(atomic(constant0(packetPushEnded) + sum(packetLength(packetPushStarted)) - sum(packetLength(packetPulled)) - sum(packetLength(packetRemoved)) - sum(packetLength(packetDropped))))"
attr title "queue bit length"
attr unit b
vector 46 TimeSyncUEUE.SwitchS1.eth[2].macLayer.queue.queue[2] queueLength:vector ETV
attr autoWarmupFilter false
attr interpolationmode sample-hold
attr recordingmode vector
attr source "warmup(atomic(constant0(packetPushEnded) + count(packetPushStarted) - count(packetPulled) - count(packetRemoved) - count(packetDropped)))"
attr title "queue length"
attr unit pk
vector 47 TimeSyncUEUE.SwitchS1.eth[2].macLayer.queue.queue[2] queueBitLength:vector ETV
attr autoWarmupFilter false
attr interpolationmode sample-hold
attr recordingmode vector
attr source "warmup(atomic(constant0(packetPushEnded) + sum(packetLength(packetPushStarted)) - sum(packetLength(packetPulled)) - sum(packetLength(packetRemoved)) - sum(packetLength(packetDropped))))"
attr title "queue bit length"
attr unit b
vector 48 TimeSyncUEUE.SwitchS1.eth[2].macLayer.queue.queue[3] queueLength:vector ETV
attr autoWarmupFilter false
attr interpolationmode sample-hold
attr recordingmode vector
attr source "warmup(atomic(constant0(packetPushEnded) + count(packetPushStarted) - count(packetPulled) - count(packetRemoved) - count(packetDropped)))"
attr title "queue length"
attr unit pk
vector 49 TimeSyncUEUE.SwitchS1.eth[2].macLayer.queue.queue[3] queueBitLength:vector ETV
attr autoWarmupFilter false
attr interpolationmode sample-hold
attr recordingmode vector
attr source "warmup(atomic(constant0(packetPushEnded) + sum(packetLength(packetPushStarted)) - sum(packetLength(packetPulled)) - sum(packetLength(packetRemoved)) - sum(packetLength(packetDropped))))"
attr title "queue bit length"
attr unit b
vector 50 TimeSyncUEUE.SwitchS1.eth[2].macLayer.queue.queue[4] queueLength:vector ETV
attr autoWarmupFilter false
attr interpolationmode sample-hold
attr recordingmode vector
attr source "warmup(atomic(constant0(packetPushEnded) + count(packetPushStarted) - count(packetPulled) - count(packetRemoved) - count(packetDropped)))"
attr title "queue length"
attr unit pk
vector 51 TimeSyncUEUE.SwitchS1.eth[2].macLayer.queue.queue[4] queueBitLength:vector ETV
attr autoWarmupFilter false
attr interpolationmode sample-hold
attr recordingmode vector
attr source "warmup(atomic(constant0(packetPushEnded) + sum(packetLength(packetPushStarted)) - sum(packetLength(packetPulled)) - sum(packetLength(packetRemoved)) - sum(packetLength(packetDropped))))"
attr title "queue bit length"
attr unit b
vector 52 TimeSyncUEUE.SwitchS1.eth[2].macLayer.queue.queue[5] queueLength:vector ETV
attr autoWarmupFilter false
attr interpolationmode sample-hold
attr recordingmode vector
attr source "warmup(atomic(constant0(packetPushEnded) + count(packetPushStarted) - count(packetPulled) - count(packetRemoved) - count(packetDropped)))"
attr title "queue length"
attr unit pk
vector 53 TimeSyncUEUE.SwitchS1.eth[2].macLayer.queue.queue[5] queueBitLength:vector ETV
attr autoWarmupFilter false
attr interpolationmode sample-hold
attr recordingmode vector
attr source "warmup(atomic(constant0(packetPushEnded) + sum(packetLength(packetPushStarted)) - sum(packetLength(packetPulled)) - sum(packetLength(packetRemoved)) - sum(packetLength(packetDropped))))"
attr title "queue bit length"
attr unit b
vector 54 TimeSyncUEUE.SwitchS1.eth[2].macLayer.queue.queue[6] queueLength:vector ETV
attr autoWarmupFilter false
attr interpolationmode sample-hold
attr recordingmode vector
attr source "warmup(atomic(constant0(packetPushEnded) + count(packetPushStarted) - count(packetPulled) - count(packetRemoved) - count(packetDropped)))"
attr title "queue length"
attr unit pk
vector 55 TimeSyncUEUE.SwitchS1.eth[2].macLayer.queue.queue[6] queueBitLength:vector ETV
attr autoWarmupFilter false
attr interpolationmode sample-hold
attr recordingmode vector
attr source "warmup(atomic(constant0(packetPushEnded) + sum(packetLength(packetPushStarted)) - sum(packetLength(packetPulled)) - sum(packetLength(packetRemoved)) - sum(packetLength(packetDropped))))"
attr title "queue bit length"
attr unit b
vector 56 TimeSyncUEUE.SwitchS1.eth[2].macLayer.queue.queue[7] queueLength:vector ETV
attr autoWarmupFilter false
attr interpolationmode sample-hold
attr recordingmode vector
attr source "warmup(atomic(constant0(packetPushEnded) + count(packetPushStarted) - count(packetPulled) - count(packetRemoved) - count(packetDropped)))"
attr title "queue length"
attr unit pk
vector 57 TimeSyncUEUE.SwitchS1.eth[2].macLayer.queue.queue[7] queueBitLength:vector ETV
attr autoWarmupFilter false
attr interpolationmode sample-hold
attr recordingmode vector
attr source "warmup(atomic(constant0(packetPushEnded) + sum(packetLength(packetPushStarted)) - sum(packetLength(packetPulled)) - sum(packetLength(packetRemoved)) - sum(packetLength(packetDropped))))"
attr title "queue bit length"
attr unit b
vector 58 TimeSyncUEUE.SwitchS1.eth[2].phyLayer.interFrameGapInserter interpacketGap:vector ETV
attr interpolationmode sample-hold
attr recordingmode vector
attr source "count(interpacketGapStarted) - count(interpacketGapEnded)"
attr title "interpacket gap state"
attr type int
vector 59 TimeSyncUEUE.SwitchS1.eth[2].phyLayer.transmitter transmitting:vector ETV
attr interpolationmode sample-hold
attr recordingmode vector
attr source "count(transmissionStarted) - count(transmissionEnded)"
attr title "transmitting state"
attr type int
vector 60 TimeSyncUEUE.SwitchS1.eth[3].macLayer.queue queueLength:vector ETV
attr autoWarmupFilter false
attr interpolationmode sample-hold
attr recordingmode vector
attr source "warmup(atomic(constant0(localSignal(packetPushEnded)) + count(localSignal(packetPushStarted)) - count(localSignal(packetPulled)) - count(localSignal(packetRemoved)) - count(localSignal(packetDropped))))"
attr title "queue length"
attr unit pk
vector 61 TimeSyncUEUE.SwitchS1.eth[3].macLayer.queue queueBitLength:vector ETV
attr autoWarmupFilter false
attr interpolationmode sample-hold
attr recordingmode vector
attr source "warmup(atomic(constant0(localSignal(packetPushEnded)) + sum(packetLength(localSignal(packetPushStarted))) - sum(packetLength(localSignal(packetPulled))) - sum(packetLength(localSignal(packetRemoved))) - sum(packetLength(localSignal(packetDropped)))))"
attr title "queue bit length"
attr unit b
vector 62 TimeSyncUEUE.SwitchS1.eth[3].macLayer.queue.queue[0] queueLength:vector ETV
attr autoWarmupFilter false
attr interpolationmode sample-hold
attr recordingmode vector
attr source "warmup(atomic(constant0(packetPushEnded) + count(packetPushStarted) - count(packetPulled) - count(packetRemoved) - count(packetDropped)))"
attr title "queue length"
attr unit pk
vector 63 TimeSyncUEUE.SwitchS1.eth[3].macLayer.queue.queue[0] queueBitLength:vector ETV
attr autoWarmupFilter false
attr interpolationmode sample-hold
attr recordingmode vector
attr source "warmup(atomic(constant0(packetPushEnded) + sum(packetLength(packetPushStarted)) - sum(packetLength(packetPulled)) - sum(packetLength(packetRemoved)) - sum(packetLength(packetDropped))))"
attr title "queue bit length"
attr unit b
vector 64 TimeSyncUEUE.SwitchS1.eth[3].macLayer.queue.queue[1] queueLength:vector ETV
attr autoWarmupFilter false
attr interpolationmode sample-hold
attr recordingmode vector
attr source "warmup(atomic(constant0(packetPushEnded) + count(packetPushStarted) - count(packetPulled) - count(packetRemoved) - count(packetDropped)))"
attr title "queue length"
attr unit pk
vector 65 TimeSyncUEUE.SwitchS1.eth[3].macLayer.queue.queue[1] queueBitLength:vector ETV
attr autoWarmupFilter false
attr interpolationmode sample-hold
attr recordingmode vector
attr source "warmup(atomic(constant0(packetPushEnded) + sum(packetLength(packetPushStarted)) - sum(packetLength(packetPulled)) - sum(packetLength(packetRemoved)) - sum(packetLength(packetDropped))))"
attr title "queue bit length"
attr unit b
vector 66 TimeSyncUEUE.SwitchS1.eth[3].macLayer.queue.queue[2] queueLength:vector ETV
attr autoWarmupFilter false
attr interpolationmode sample-hold
attr recordingmode vector
attr source "warmup(atomic(constant0(packetPushEnded) + count(packetPushStarted) - count(packetPulled) - count(packetRemoved) - count(packetDropped)))"
attr title "queue length"
attr unit pk
vector 67 TimeSyncUEUE.SwitchS1.eth[3].macLayer.queue.queue[2] queueBitLength:vector ETV
attr autoWarmupFilter false
attr interpolationmode sample-hold
attr recordingmode vector
attr source "warmup(atomic(constant0(packetPushEnded) + sum(packetLength(packetPushStarted)) - sum(packetLength(packetPulled)) - sum(packetLength(packetRemoved)) - sum(packetLength(packetDropped))))"
attr title "queue bit length"
attr unit b
vector 68 TimeSyncUEUE.SwitchS1.eth[3].macLayer.queue.queue[3] queueLength:vector ETV
attr autoWarmupFilter false
attr interpolationmode sample-hold
attr recordingmode vector
attr source "warmup(atomic(constant0(packetPushEnded) + count(packetPushStarted) - count(packetPulled) - count(packetRemoved) - count(packetDropped)))"
attr title "queue length"
attr unit pk
vector 69 TimeSyncUEUE.SwitchS1.eth[3].macLayer.queue.queue[3] queueBitLength:vector ETV
attr autoWarmupFilter false
attr interpolationmode sample-hold
attr recordingmode vector
attr source "warmup(atomic(constant0(packetPushEnded) + sum(packetLength(packetPushStarted)) - sum(packetLength(packetPulled)) - sum(packetLength(packetRemoved)) - sum(packetLength(packetDropped))))"
attr title "queue bit length"
attr unit b
vector 70 TimeSyncUEUE.SwitchS1.eth[3].macLayer.queue.queue[4] queueLength:vector ETV
attr autoWarmupFilter false
attr interpolationmode sample-hold
attr recordingmode vector
attr source "warmup(atomic(constant0(packetPushEnded) + count(packetPushStarted) - count(packetPulled) - count(packetRemoved) - count(packetDropped)))"
attr title "queue length"
attr unit pk
vector 71 TimeSyncUEUE.SwitchS1.eth[3].macLayer.queue.queue[4] queueBitLength:vector ETV
attr autoWarmupFilter false
attr interpolationmode sample-hold
attr recordingmode vector
attr source "warmup(atomic(constant0(packetPushEnded) + sum(packetLength(packetPushStarted)) - sum(packetLength(packetPulled)) - sum(packetLength(packetRemoved)) - sum(packetLength(packetDropped))))"
attr title "queue bit length"
attr unit b
vector 72 TimeSyncUEUE.SwitchS1.eth[3].macLayer.queue.queue[5] queueLength:vector ETV
attr autoWarmupFilter false
attr interpolationmode sample-hold
attr recordingmode vector
attr source "warmup(atomic(constant0(packetPushEnded) + count(packetPushStarted) - count(packetPulled) - count(packetRemoved) - count(packetDropped)))"
attr title "queue length"
attr unit pk
vector 73 TimeSyncUEUE.SwitchS1.eth[3].macLayer.queue.queue[5] queueBitLength:vector ETV
attr autoWarmupFilter false
attr interpolationmode sample-hold
attr recordingmode vector
attr source "warmup(atomic(constant0(packetPushEnded) + sum(packetLength(packetPushStarted)) - sum(packetLength(packetPulled)) - sum(packetLength(packetRemoved)) - sum(packetLength(packetDropped))))"
attr title "queue bit length"
attr unit b
vector 74 TimeSyncUEUE.SwitchS1.eth[3].macLayer.queue.queue[6] queueLength:vector ETV
attr autoWarmupFilter false
attr interpolationmode sample-hold
attr recordingmode vector
attr source "warmup(atomic(constant0(packetPushEnded) + count(packetPushStarted) - count(packetPulled) - count(packetRemoved) - count(packetDropped)))"
attr title "queue length"
attr unit pk
vector 75 TimeSyncUEUE.SwitchS1.eth[3].macLayer.queue.queue[6] queueBitLength:vector ETV
attr autoWarmupFilter false
attr interpolationmode sample-hold
attr recordingmode vector
attr source "warmup(atomic(constant0(packetPushEnded) + sum(packetLength(packetPushStarted)) - sum(packetLength(packetPulled)) - sum(packetLength(packetRemoved)) - sum(packetLength(packetDropped))))"
attr title "queue bit length"
attr unit b
vector 76 TimeSyncUEUE.SwitchS1.eth[3].macLayer.queue.queue[7] queueLength:vector ETV
attr autoWarmupFilter false
attr interpolationmode sample-hold
attr recordingmode vector
attr source "warmup(atomic(constant0(packetPushEnded) + count(packetPushStarted) - count(packetPulled) - count(packetRemoved) - count(packetDropped)))"
attr title "queue length"
attr unit pk
vector 77 TimeSyncUEUE.SwitchS1.eth[3].macLayer.queue.queue[7] queueBitLength:vector ETV
attr autoWarmupFilter false
attr interpolationmode sample-hold
attr recordingmode vector
attr source "warmup(atomic(constant0(packetPushEnded) + sum(packetLength(packetPushStarted)) - sum(packetLength(packetPulled)) - sum(packetLength(packetRemoved)) - sum(packetLength(packetDropped))))"
attr title "queue bit length"
attr unit b
vector 78 TimeSyncUEUE.SwitchS1.eth[3].phyLayer.interFrameGapInserter interpacketGap:vector ETV
attr interpolationmode sample-hold
attr recordingmode vector
attr source "count(interpacketGapStarted) - count(interpacketGapEnded)"
attr title "interpacket gap state"
attr type int
vector 79 TimeSyncUEUE.SwitchS1.eth[3].phyLayer.transmitter transmitting:vector ETV
attr interpolationmode sample-hold
attr recordingmode vector
attr source "count(transmissionStarted) - count(transmissionEnded)"
attr title "transmitting state"
attr type int
vector 80 TimeSyncUEUE.SwitchS1.eth[4].macLayer.queue queueLength:vector ETV
attr autoWarmupFilter false
attr interpolationmode sample-hold
attr recordingmode vector
attr source "warmup(atomic(constant0(localSignal(packetPushEnded)) + count(localSignal(packetPushStarted)) - count(localSignal(packetPulled)) - count(localSignal(packetRemoved)) - count(localSignal(packetDropped))))"
attr title "queue length"
attr unit pk
vector 81 TimeSyncUEUE.SwitchS1.eth[4].macLayer.queue queueBitLength:vector ETV
attr autoWarmupFilter false
attr interpolationmode sample-hold
attr recordingmode vector
attr source "warmup(atomic(constant0(localSignal(packetPushEnded)) + sum(packetLength(localSignal(packetPushStarted))) - sum(packetLength(localSignal(packetPulled))) - sum(packetLength(localSignal(packetRemoved))) - sum(packetLength(localSignal(packetDropped)))))"
attr title "queue bit length"
attr unit b
vector 82 TimeSyncUEUE.SwitchS1.eth[4].macLayer.queue.queue[0] queueLength:vector ETV
attr autoWarmupFilter false
attr interpolationmode sample-hold
attr recordingmode vector
attr source "warmup(atomic(constant0(packetPushEnded) + count(packetPushStarted) - count(packetPulled) - count(packetRemoved) - count(packetDropped)))"
attr title "queue length"
attr unit pk
vector 83 TimeSyncUEUE.SwitchS1.eth[4].macLayer.queue.queue[0] queueBitLength:vector ETV
attr autoWarmupFilter false
attr interpolationmode sample-hold
attr recordingmode vector
attr source "warmup(atomic(constant0(packetPushEnded) + sum(packetLength(packetPushStarted)) - sum(packetLength(packetPulled)) - sum(packetLength(packetRemoved)) - sum(packetLength(packetDropped))))"
attr title "queue bit length"
attr unit b
vector 84 TimeSyncUEUE.SwitchS1.eth[4].macLayer.queue.queue[1] queueLength:vector ETV
attr autoWarmupFilter false
attr interpolationmode sample-hold
attr recordingmode vector
attr source "warmup(atomic(constant0(packetPushEnded) + count(packetPushStarted) - count(packetPulled) - count(packetRemoved) - count(packetDropped)))"
attr title "queue length"
attr unit pk
vector 85 TimeSyncUEUE.SwitchS1.eth[4].macLayer.queue.queue[1] queueBitLength:vector ETV
attr autoWarmupFilter false
attr interpolationmode sample-hold
attr recordingmode vector
attr source "warmup(atomic(constant0(packetPushEnded) + sum(packetLength(packetPushStarted)) - sum(packetLength(packetPulled)) - sum(packetLength(packetRemoved)) - sum(packetLength(packetDropped))))"
attr title "queue bit length"
attr unit b
vector 86 TimeSyncUEUE.SwitchS1.eth[4].macLayer.queue.queue[2] queueLength:vector ETV
attr autoWarmupFilter false
attr interpolationmode sample-hold
attr recordingmode vector
attr source "warmup(atomic(constant0(packetPushEnded) + count(packetPushStarted) - count(packetPulled) - count(packetRemoved) - count(packetDropped)))"
attr title "queue length"
attr unit pk
vector 87 TimeSyncUEUE.SwitchS1.eth[4].macLayer.queue.queue[2] queueBitLength:vector ETV
attr autoWarmupFilter false
attr interpolationmode sample-hold
attr recordingmode vector
attr source "warmup(atomic(constant0(packetPushEnded) + sum(packetLength(packetPushStarted)) - sum(packetLength(packetPulled)) - sum(packetLength(packetRemoved)) - sum(packetLength(packetDropped))))"
attr title "queue bit length"
attr unit b
vector 88 TimeSyncUEUE.SwitchS1.eth[4].macLayer.queue.queue[3] queueLength:vector ETV
attr autoWarmupFilter false
attr interpolationmode sample-hold
attr recordingmode vector
attr source "warmup(atomic(constant0(packetPushEnded) + count(packetPushStarted) - count(packetPulled) - count(packetRemoved) - count(packetDropped)))"
attr title "queue length"
attr unit pk
vector 89 TimeSyncUEUE.SwitchS1.eth[4].macLayer.queue.queue[3] queueBitLength:vector ETV
attr autoWarmupFilter false
attr interpolationmode sample-hold
attr recordingmode vector
attr source "warmup(atomic(constant0(packetPushEnded) + sum(packetLength(packetPushStarted)) - sum(packetLength(packetPulled)) - sum(packetLength(packetRemoved)) - sum(packetLength(packetDropped))))"
attr title "queue bit length"
attr unit b
vector 90 TimeSyncUEUE.SwitchS1.eth[4].macLayer.queue.queue[4] queueLength:vector ETV
attr autoWarmupFilter false
attr interpolationmode sample-hold
attr recordingmode vector
attr source "warmup(atomic(constant0(packetPushEnded) + count(packetPushStarted) - count(packetPulled) - count(packetRemoved) - count(packetDropped)))"
attr title "queue length"
attr unit pk
vector 91 TimeSyncUEUE.SwitchS1.eth[4].macLayer.queue.queue[4] queueBitLength:vector ETV
attr autoWarmupFilter false
attr interpolationmode sample-hold
attr recordingmode vector
attr source "warmup(atomic(constant0(packetPushEnded) + sum(packetLength(packetPushStarted)) - sum(packetLength(packetPulled)) - sum(packetLength(packetRemoved)) - sum(packetLength(packetDropped))))"
attr title "queue bit length"
attr unit b
vector 92 TimeSyncUEUE.SwitchS1.eth[4].macLayer.queue.queue[5] queueLength:vector ETV
attr autoWarmupFilter false
attr interpolationmode sample-hold
attr recordingmode vector
attr source "warmup(atomic(constant0(packetPushEnded) + count(packetPushStarted) - count(packetPulled) - count(packetRemoved) - count(packetDropped)))"
attr title "queue length"
attr unit pk
vector 93 TimeSyncUEUE.SwitchS1.eth[4].macLayer.queue.queue[5] queueBitLength:vector ETV
attr autoWarmupFilter false
attr interpolationmode sample-hold
attr recordingmode vector
attr source "warmup(atomic(constant0(packetPushEnded) + sum(packetLength(packetPushStarted)) - sum(packetLength(packetPulled)) - sum(packetLength(packetRemoved)) - sum(packetLength(packetDropped))))"
attr title "queue bit length"
attr unit b
vector 94 TimeSyncUEUE.SwitchS1.eth[4].macLayer.queue.queue[6] queueLength:vector ETV
attr autoWarmupFilter false
attr interpolationmode sample-hold
attr recordingmode vector
attr source "warmup(atomic(constant0(packetPushEnded) + count(packetPushStarted) - count(packetPulled) - count(packetRemoved) - count(packetDropped)))"
attr title "queue length"
attr unit pk
vector 95 TimeSyncUEUE.SwitchS1.eth[4].macLayer.queue.queue[6] queueBitLength:vector ETV
attr autoWarmupFilter false
attr interpolationmode sample-hold
attr recordingmode vector
attr source "warmup(atomic(constant0(packetPushEnded) + sum(packetLength(packetPushStarted)) - sum(packetLength(packetPulled)) - sum(packetLength(packetRemoved)) - sum(packetLength(packetDropped))))"
attr title "queue bit length"
attr unit b
vector 96 TimeSyncUEUE.SwitchS1.eth[4].macLayer.queue.queue[7] queueLength:vector ETV
attr autoWarmupFilter false
attr interpolationmode sample-hold
attr recordingmode vector
attr source "warmup(atomic(constant0(packetPushEnded) + count(packetPushStarted) - count(packetPulled) - count(packetRemoved) - count(packetDropped)))"
attr title "queue length"
attr unit pk
vector 97 TimeSyncUEUE.SwitchS1.eth[4].macLayer.queue.queue[7] queueBitLength:vector ETV
attr autoWarmupFilter false
attr interpolationmode sample-hold
attr recordingmode vector
attr source "warmup(atomic(constant0(packetPushEnded) + sum(packetLength(packetPushStarted)) - sum(packetLength(packetPulled)) - sum(packetLength(packetRemoved)) - sum(packetLength(packetDropped))))"
attr title "queue bit length"
attr unit b
vector 98 TimeSyncUEUE.SwitchS1.eth[4].phyLayer.interFrameGapInserter interpacketGap:vector ETV
attr interpolationmode sample-hold
attr recordingmode vector
attr source "count(interpacketGapStarted) - count(interpacketGapEnded)"
attr title "interpacket gap state"
attr type int
vector 99 TimeSyncUEUE.SwitchS1.eth[4].phyLayer.transmitter transmitting:vector ETV
attr interpolationmode sample-hold
attr recordingmode vector
attr source "count(transmissionStarted) - count(transmissionEnded)"
attr title "transmitting state"
attr type int
vector 100 TimeSyncUEUE.SensorS1.eth[0].macLayer.queue queueLength:vector ETV
attr autoWarmupFilter false
attr interpolationmode sample-hold
attr recordingmode vector
attr source "warmup(atomic(constant0(localSignal(packetPushEnded)) + count(localSignal(packetPushStarted)) - count(localSignal(packetPulled)) - count(localSignal(packetRemoved)) - count(localSignal(packetDropped))))"
attr title "queue length"
attr unit pk
vector 101 TimeSyncUEUE.SensorS1.eth[0].macLayer.queue queueBitLength:vector ETV
attr autoWarmupFilter false
attr interpolationmode sample-hold
attr recordingmode vector
attr source "warmup(atomic(constant0(localSignal(packetPushEnded)) + sum(packetLength(localSignal(packetPushStarted))) - sum(packetLength(localSignal(packetPulled))) - sum(packetLength(localSignal(packetRemoved))) - sum(packetLength(localSignal(packetDropped)))))"
attr title "queue bit length"
attr unit b
vector 102 TimeSyncUEUE.SensorS1.eth[0].macLayer.queue.queue[0] queueLength:vector ETV
attr autoWarmupFilter false
attr interpolationmode sample-hold
attr recordingmode vector
attr source "warmup(atomic(constant0(packetPushEnded) + count(packetPushStarted) - count(packetPulled) - count(packetRemoved) - count(packetDropped)))"
attr title "queue length"
attr unit pk
vector 103 TimeSyncUEUE.SensorS1.eth[0].macLayer.queue.queue[0] queueBitLength:vector ETV
attr autoWarmupFilter false
attr interpolationmode sample-hold
attr recordingmode vector
attr source "warmup(atomic(constant0(packetPushEnded) + sum(packetLength(packetPushStarted)) - sum(packetLength(packetPulled)) - sum(packetLength(packetRemoved)) - sum(packetLength(packetDropped))))"
attr title "queue bit length"
attr unit b
vector 104 TimeSyncUEUE.SensorS1.eth[0].macLayer.queue.queue[1] queueLength:vector ETV
attr autoWarmupFilter false
attr interpolationmode sample-hold
attr recordingmode vector
attr source "warmup(atomic(constant0(packetPushEnded) + count(packetPushStarted) - count(packetPulled) - count(packetRemoved) - count(packetDropped)))"
attr title "queue length"
attr unit pk
vector 105 TimeSyncUEUE.SensorS1.eth[0].macLayer.queue.queue[1] queueBitLength:vector ETV
attr autoWarmupFilter false
attr interpolationmode sample-hold
attr recordingmode vector
attr source "warmup(atomic(constant0(packetPushEnded) + sum(packetLength(packetPushStarted)) - sum(packetLength(packetPulled)) - sum(packetLength(packetRemoved)) - sum(packetLength(packetDropped))))"
attr title "queue bit length"
attr unit b
vector 106 TimeSyncUEUE.SensorS1.eth[0].macLayer.queue.queue[2] queueLength:vector ETV
attr autoWarmupFilter false
attr interpolationmode sample-hold
attr recordingmode vector
attr source "warmup(atomic(constant0(packetPushEnded) + count(packetPushStarted) - count(packetPulled) - count(packetRemoved) - count(packetDropped)))"
attr title "queue length"
attr unit pk
vector 107 TimeSyncUEUE.SensorS1.eth[0].macLayer.queue.queue[2] queueBitLength:vector ETV
attr autoWarmupFilter false
attr interpolationmode sample-hold
attr recordingmode vector
attr source "warmup(atomic(constant0(packetPushEnded) + sum(packetLength(packetPushStarted)) - sum(packetLength(packetPulled)) - sum(packetLength(packetRemoved)) - sum(packetLength(packetDropped))))"
attr title "queue bit length"
attr unit b
vector 108 TimeSyncUEUE.SensorS1.eth[0].macLayer.queue.queue[3] queueLength:vector ETV
attr autoWarmupFilter false
attr interpolationmode sample-hold
attr recordingmode vector
attr source "warmup(atomic(constant0(packetPushEnded) + count(packetPushStarted) - count(packetPulled) - count(packetRemoved) - count(packetDropped)))"
attr title "queue length"
attr unit pk
vector 109 TimeSyncUEUE.SensorS1.eth[0].macLayer.queue.queue[3] queueBitLength:vector ETV
attr autoWarmupFilter false
attr interpolationmode sample-hold
attr recordingmode vector
attr source "warmup(atomic(constant0(packetPushEnded) + sum(packetLength(packetPushStarted)) - sum(packetLength(packetPulled)) - sum(packetLength(packetRemoved)) - sum(packetLength(packetDropped))))"
attr title "queue bit length"
attr unit b
vector 110 TimeSyncUEUE.SensorS1.eth[0].macLayer.queue.queue[4] queueLength:vector ETV
attr autoWarmupFilter false
attr interpolationmode sample-hold
attr recordingmode vector
attr source "warmup(atomic(constant0(packetPushEnded) + count(packetPushStarted) - count(packetPulled) - count(packetRemoved) - count(packetDropped)))"
attr title "queue length"
attr unit pk
vector 111 TimeSyncUEUE.SensorS1.eth[0].macLayer.queue.queue[4] queueBitLength:vector ETV
attr autoWarmupFilter false
attr interpolationmode sample-hold
attr recordingmode vector
attr source "warmup(atomic(constant0(packetPushEnded) + sum(packetLength(packetPushStarted)) - sum(packetLength(packetPulled)) - sum(packetLength(packetRemoved)) - sum(packetLength(packetDropped))))"
attr title "queue bit length"
attr unit b
vector 112 TimeSyncUEUE.SensorS1.eth[0].macLayer.queue.queue[5] queueLength:vector ETV
attr autoWarmupFilter false
attr interpolationmode sample-hold
attr recordingmode vector
attr source "warmup(atomic(constant0(packetPushEnded) + count(packetPushStarted) - count(packetPulled) - count(packetRemoved) - count(packetDropped)))"
attr title "queue length"
attr unit pk
vector 113 TimeSyncUEUE.SensorS1.eth[0].macLayer.queue.queue[5] queueBitLength:vector ETV
attr autoWarmupFilter false
attr interpolationmode sample-hold
attr recordingmode vector
attr source "warmup(atomic(constant0(packetPushEnded) + sum(packetLength(packetPushStarted)) - sum(packetLength(packetPulled)) - sum(packetLength(packetRemoved)) - sum(packetLength(packetDropped))))"
attr title "queue bit length"
attr unit b
vector 114 TimeSyncUEUE.SensorS1.eth[0].macLayer.queue.queue[6] queueLength:vector ETV
attr autoWarmupFilter false
attr interpolationmode sample-hold
attr recordingmode vector
attr source "warmup(atomic(constant0(packetPushEnded) + count(packetPushStarted) - count(packetPulled) - count(packetRemoved) - count(packetDropped)))"
attr title "queue length"
attr unit pk
vector 115 TimeSyncUEUE.SensorS1.eth[0].macLayer.queue.queue[6] queueBitLength:vector ETV
attr autoWarmupFilter false
attr interpolationmode sample-hold
attr recordingmode vector
attr source "warmup(atomic(constant0(packetPushEnded) + sum(packetLength(packetPushStarted)) - sum(packetLength(packetPulled)) - sum(packetLength(packetRemoved)) - sum(packetLength(packetDropped))))"
attr title "queue bit length"
attr unit b
vector 116 TimeSyncUEUE.SensorS1.eth[0].macLayer.queue.queue[7] queueLength:vector ETV
attr autoWarmupFilter false
attr interpolationmode sample-hold
attr recordingmode vector
attr source "warmup(atomic(constant0(packetPushEnded) + count(packetPushStarted) - count(packetPulled) - count(packetRemoved) - count(packetDropped)))"
attr title "queue length"
attr unit pk
vector 117 TimeSyncUEUE.SensorS1.eth[0].macLayer.queue.queue[7] queueBitLength:vector ETV
attr autoWarmupFilter false
attr interpolationmode sample-hold
attr recordingmode vector
attr source "warmup(atomic(constant0(packetPushEnded) + sum(packetLength(packetPushStarted)) - sum(packetLength(packetPulled)) - sum(packetLength(packetRemoved)) - sum(packetLength(packetDropped))))"
attr title "queue bit length"
attr unit b
vector 118 TimeSyncUEUE.SensorS1.eth[0].phyLayer.interFrameGapInserter interpacketGap:vector ETV
attr interpolationmode sample-hold
attr recordingmode vector
attr source "count(interpacketGapStarted) - count(interpacketGapEnded)"
attr title "interpacket gap state"
attr type int
vector 119 TimeSyncUEUE.SensorS1.eth[0].phyLayer.transmitter transmitting:vector ETV
attr interpolationmode sample-hold
attr recordingmode vector
attr source "count(transmissionStarted) - count(transmissionEnded)"
attr title "transmitting state"
attr type int
vector 120 TimeSyncUEUE.SensorS1.udp passedUpPk:vector(count) ETV
attr interpolationmode none
attr recordingmode vector(count)
attr source packetSentToUpper
attr title "packets passed up, count"
vector 121 TimeSyncUEUE.SensorS1.udp droppedPkWrongPort:vector(count) ETV
attr interpolationmode none
attr recordingmode vector(count)
attr source packetDropReasonIsNoPortFound(packetDropped)
attr title "packets dropped (wrong port), count"
vector 122 TimeSyncUEUE.SensorS1.udp droppedPkBadChecksum:vector(count) ETV
attr interpolationmode none
attr recordingmode vector(count)
attr source packetDropReasonIsIncorrectlyReceived(packetDropped)
attr title "packets dropped (checksum error), count"
vector 123 TimeSyncUEUE.CameraS1.eth[0].macLayer.queue queueLength:vector ETV
attr autoWarmupFilter false
attr interpolationmode sample-hold
attr recordingmode vector
attr source "warmup(atomic(constant0(localSignal(packetPushEnded)) + count(localSignal(packetPushStarted)) - count(localSignal(packetPulled)) - count(localSignal(packetRemoved)) - count(localSignal(packetDropped))))"
attr title "queue length"
attr unit pk
vector 124 TimeSyncUEUE.CameraS1.eth[0].macLayer.queue queueBitLength:vector ETV
attr autoWarmupFilter false
attr interpolationmode sample-hold
attr recordingmode vector
attr source "warmup(atomic(constant0(localSignal(packetPushEnded)) + sum(packetLength(localSignal(packetPushStarted))) - sum(packetLength(localSignal(packetPulled))) - sum(packetLength(localSignal(packetRemoved))) - sum(packetLength(localSignal(packetDropped)))))"
attr title "queue bit length"
attr unit b
vector 125 TimeSyncUEUE.CameraS1.eth[0].macLayer.queue.queue[0] queueLength:vector ETV
attr autoWarmupFilter false
attr interpolationmode sample-hold
attr recordingmode vector
attr source "warmup(atomic(constant0(packetPushEnded) + count(packetPushStarted) - count(packetPulled) - count(packetRemoved) - count(packetDropped)))"
attr title "queue length"
attr unit pk
vector 126 TimeSyncUEUE.CameraS1.eth[0].macLayer.queue.queue[0] queueBitLength:vector ETV
attr autoWarmupFilter false
attr interpolationmode sample-hold
attr recordingmode vector
attr source "warmup(atomic(constant0(packetPushEnded) + sum(packetLength(packetPushStarted)) - sum(packetLength(packetPulled)) - sum(packetLength(packetRemoved)) - sum(packetLength(packetDropped))))"
attr title "queue bit length"
attr unit b
vector 127 TimeSyncUEUE.CameraS1.eth[0].macLayer.queue.queue[1] queueLength:vector ETV
attr autoWarmupFilter false
attr interpolationmode sample-hold
attr recordingmode vector
attr source "warmup(atomic(constant0(packetPushEnded) + count(packetPushStarted) - count(packetPulled) - count(packetRemoved) - count(packetDropped)))"
attr title "queue length"
attr unit pk
vector 128 TimeSyncUEUE.CameraS1.eth[0].macLayer.queue.queue[1] queueBitLength:vector ETV
attr autoWarmupFilter false
attr interpolationmode sample-hold
attr recordingmode vector
attr source "warmup(atomic(constant0(packetPushEnded) + sum(packetLength(packetPushStarted)) - sum(packetLength(packetPulled)) - sum(packetLength(packetRemoved)) - sum(packetLength(packetDropped))))"
attr title "queue bit length"
attr unit b
vector 129 TimeSyncUEUE.CameraS1.eth[0].macLayer.queue.queue[2] queueLength:vector ETV
attr autoWarmupFilter false
attr interpolationmode sample-hold
attr recordingmode vector
attr source "warmup(atomic(constant0(packetPushEnded) + count(packetPushStarted) - count(packetPulled) - count(packetRemoved) - count(packetDropped)))"
attr title "queue length"
attr unit pk
vector 130 TimeSyncUEUE.CameraS1.eth[0].macLayer.queue.queue[2] queueBitLength:vector ETV
attr autoWarmupFilter false
attr interpolationmode sample-hold
attr recordingmode vector
attr source "warmup(atomic(constant0(packetPushEnded) + sum(packetLength(packetPushStarted)) - sum(packetLength(packetPulled)) - sum(packetLength(packetRemoved)) - sum(packetLength(packetDropped))))"
attr title "queue bit length"
attr unit b
vector 131 TimeSyncUEUE.CameraS1.eth[0].macLayer.queue.queue[3] queueLength:vector ETV
attr autoWarmupFilter false
attr interpolationmode sample-hold
attr recordingmode vector
attr source "warmup(atomic(constant0(packetPushEnded) + count(packetPushStarted) - count(packetPulled) - count(packetRemoved) - count(packetDropped)))"
attr title "queue length"
attr unit pk
vector 132 TimeSyncUEUE.CameraS1.eth[0].macLayer.queue.queue[3] queueBitLength:vector ETV
attr autoWarmupFilter false
attr interpolationmode sample-hold
attr recordingmode vector
attr source "warmup(atomic(constant0(packetPushEnded) + sum(packetLength(packetPushStarted)) - sum(packetLength(packetPulled)) - sum(packetLength(packetRemoved)) - sum(packetLength(packetDropped))))"
attr title "queue bit length"
attr unit b
vector 133 TimeSyncUEUE.CameraS1.eth[0].macLayer.queue.queue[4] queueLength:vector ETV
attr autoWarmupFilter false
attr interpolationmode sample-hold
attr recordingmode vector
attr source "warmup(atomic(constant0(packetPushEnded) + count(packetPushStarted) - count(packetPulled) - count(packetRemoved) - count(packetDropped)))"
attr title "queue length"
attr unit pk
vector 134 TimeSyncUEUE.CameraS1.eth[0].macLayer.queue.queue[4] queueBitLength:vector ETV
attr autoWarmupFilter false
attr interpolationmode sample-hold
attr recordingmode vector
attr source "warmup(atomic(constant0(packetPushEnded) + sum(packetLength(packetPushStarted)) - sum(packetLength(packetPulled)) - sum(packetLength(packetRemoved)) - sum(packetLength(packetDropped))))"
attr title "queue bit length"
attr unit b
vector 135 TimeSyncUEUE.CameraS1.eth[0].macLayer.queue.queue[5] queueLength:vector ETV
attr autoWarmupFilter false
attr interpolationmode sample-hold
attr recordingmode vector
attr source "warmup(atomic(constant0(packetPushEnded) + count(packetPushStarted) - count(packetPulled) - count(packetRemoved) - count(packetDropped)))"
attr title "queue length"
attr unit pk
vector 136 TimeSyncUEUE.CameraS1.eth[0].macLayer.queue.queue[5] queueBitLength:vector ETV
attr autoWarmupFilter false
attr interpolationmode sample-hold
attr recordingmode vector
attr source "warmup(atomic(constant0(packetPushEnded) + sum(packetLength(packetPushStarted)) - sum(packetLength(packetPulled)) - sum(packetLength(packetRemoved)) - sum(packetLength(packetDropped))))"
attr title "queue bit length"
attr unit b
vector 137 TimeSyncUEUE.CameraS1.eth[0].macLayer.queue.queue[6] queueLength:vector ETV
attr autoWarmupFilter false
attr interpolationmode sample-hold
attr recordingmode vector
attr source "warmup(atomic(constant0(packetPushEnded) + count(packetPushStarted) - count(packetPulled) - count(packetRemoved) - count(packetDropped)))"
attr title "queue length"
attr unit pk
vector 138 TimeSyncUEUE.CameraS1.eth[0].macLayer.queue.queue[6] queueBitLength:vector ETV
attr autoWarmupFilter false
attr interpolationmode sample-hold
attr recordingmode vector
attr source "warmup(atomic(constant0(packetPushEnded) + sum(packetLength(packetPushStarted)) - sum(packetLength(packetPulled)) - sum(packetLength(packetRemoved)) - sum(packetLength(packetDropped))))"
attr title "queue bit length"
attr unit b
vector 139 TimeSyncUEUE.CameraS1.eth[0].macLayer.queue.queue[7] queueLength:vector ETV
attr autoWarmupFilter false
attr interpolationmode sample-hold
attr recordingmode vector
attr source "warmup(atomic(constant0(packetPushEnded) + count(packetPushStarted) - count(packetPulled) - count(packetRemoved) - count(packetDropped)))"
attr title "queue length"
attr unit pk
vector 140 TimeSyncUEUE.CameraS1.eth[0].macLayer.queue.queue[7] queueBitLength:vector ETV
attr autoWarmupFilter false
attr interpolationmode sample-hold
attr recordingmode vector
attr source "warmup(atomic(constant0(packetPushEnded) + sum(packetLength(packetPushStarted)) - sum(packetLength(packetPulled)) - sum(packetLength(packetRemoved)) - sum(packetLength(packetDropped))))"
attr title "queue bit length"
attr unit b
vector 141 TimeSyncUEUE.CameraS1.eth[0].phyLayer.interFrameGapInserter interpacketGap:vector ETV
attr interpolationmode sample-hold
attr recordingmode vector
attr source "count(interpacketGapStarted) - count(interpacketGapEnded)"
attr title "interpacket gap state"
attr type int
vector 142 TimeSyncUEUE.CameraS1.eth[0].phyLayer.transmitter transmitting:vector ETV
attr interpolationmode sample-hold
attr recordingmode vector
attr source "count(transmissionStarted) - count(transmissionEnded)"
attr title "transmitting state"
attr type int
vector 143 TimeSyncUEUE.CameraS1.udp passedUpPk:vector(count) ETV
attr interpolationmode none
attr recordingmode vector(count)
attr source packetSentToUpper
attr title "packets passed up, count"
vector 144 TimeSyncUEUE.CameraS1.udp droppedPkWrongPort:vector(count) ETV
attr interpolationmode none
attr recordingmode vector(count)
attr source packetDropReasonIsNoPortFound(packetDropped)
attr title "packets dropped (wrong port), count"
vector 145 TimeSyncUEUE.CameraS1.udp droppedPkBadChecksum:vector(count) ETV
attr interpolationmode none
attr recordingmode vector(count)
attr source packetDropReasonIsIncorrectlyReceived(packetDropped)
attr title "packets dropped (checksum error), count"
vector 146 TimeSyncUEUE.EsteiraS1.eth[0].macLayer.queue queueLength:vector ETV
attr autoWarmupFilter false
attr interpolationmode sample-hold
attr recordingmode vector
attr source "warmup(atomic(constant0(localSignal(packetPushEnded)) + count(localSignal(packetPushStarted)) - count(localSignal(packetPulled)) - count(localSignal(packetRemoved)) - count(localSignal(packetDropped))))"
attr title "queue length"
attr unit pk
vector 147 TimeSyncUEUE.EsteiraS1.eth[0].macLayer.queue queueBitLength:vector ETV
attr autoWarmupFilter false
attr interpolationmode sample-hold
attr recordingmode vector
attr source "warmup(atomic(constant0(localSignal(packetPushEnded)) + sum(packetLength(localSignal(packetPushStarted))) - sum(packetLength(localSignal(packetPulled))) - sum(packetLength(localSignal(packetRemoved))) - sum(packetLength(localSignal(packetDropped)))))"
attr title "queue bit length"
attr unit b
vector 148 TimeSyncUEUE.EsteiraS1.eth[0].macLayer.queue.queue[0] queueLength:vector ETV
attr autoWarmupFilter false
attr interpolationmode sample-hold
attr recordingmode vector
attr source "warmup(atomic(constant0(packetPushEnded) + count(packetPushStarted) - count(packetPulled) - count(packetRemoved) - count(packetDropped)))"
attr title "queue length"
attr unit pk
vector 149 TimeSyncUEUE.EsteiraS1.eth[0].macLayer.queue.queue[0] queueBitLength:vector ETV
attr autoWarmupFilter false
attr interpolationmode sample-hold
attr recordingmode vector
attr source "warmup(atomic(constant0(packetPushEnded) + sum(packetLength(packetPushStarted)) - sum(packetLength(packetPulled)) - sum(packetLength(packetRemoved)) - sum(packetLength(packetDropped))))"
attr title "queue bit length"
attr unit b
vector 150 TimeSyncUEUE.EsteiraS1.eth[0].macLayer.queue.queue[1] queueLength:vector ETV
attr autoWarmupFilter false
attr interpolationmode sample-hold
attr recordingmode vector
attr source "warmup(atomic(constant0(packetPushEnded) + count(packetPushStarted) - count(packetPulled) - count(packetRemoved) - count(packetDropped)))"
attr title "queue length"
attr unit pk
vector 151 TimeSyncUEUE.EsteiraS1.eth[0].macLayer.queue.queue[1] queueBitLength:vector ETV
attr autoWarmupFilter false
attr interpolationmode sample-hold
attr recordingmode vector
attr source "warmup(atomic(constant0(packetPushEnded) + sum(packetLength(packetPushStarted)) - sum(packetLength(packetPulled)) - sum(packetLength(packetRemoved)) - sum(packetLength(packetDropped))))"
attr title "queue bit length"
attr unit b
vector 152 TimeSyncUEUE.EsteiraS1.eth[0].macLayer.queue.queue[2] queueLength:vector ETV
attr autoWarmupFilter false
attr interpolationmode sample-hold
attr recordingmode vector
attr source "warmup(atomic(constant0(packetPushEnded) + count(packetPushStarted) - count(packetPulled) - count(packetRemoved) - count(packetDropped)))"
attr title "queue length"
attr unit pk
vector 153 TimeSyncUEUE.EsteiraS1.eth[0].macLayer.queue.queue[2] queueBitLength:vector ETV
attr autoWarmupFilter false
attr interpolationmode sample-hold
attr recordingmode vector
attr source "warmup(atomic(constant0(packetPushEnded) + sum(packetLength(packetPushStarted)) - sum(packetLength(packetPulled)) - sum(packetLength(packetRemoved)) - sum(packetLength(packetDropped))))"
attr title "queue bit length"
attr unit b
vector 154 TimeSyncUEUE.EsteiraS1.eth[0].macLayer.queue.queue[3] queueLength:vector ETV
attr autoWarmupFilter false
attr interpolationmode sample-hold
attr recordingmode vector
attr source "warmup(atomic(constant0(packetPushEnded) + count(packetPushStarted) - count(packetPulled) - count(packetRemoved) - count(packetDropped)))"
attr title "queue length"
attr unit pk
vector 155 TimeSyncUEUE.EsteiraS1.eth[0].macLayer.queue.queue[3] queueBitLength:vector ETV
attr autoWarmupFilter false
attr interpolationmode sample-hold
attr recordingmode vector
attr source "warmup(atomic(constant0(packetPushEnded) + sum(packetLength(packetPushStarted)) - sum(packetLength(packetPulled)) - sum(packetLength(packetRemoved)) - sum(packetLength(packetDropped))))"
attr title "queue bit length"
attr unit b
vector 156 TimeSyncUEUE.EsteiraS1.eth[0].macLayer.queue.queue[4] queueLength:vector ETV
attr autoWarmupFilter false
attr interpolationmode sample-hold
attr recordingmode vector
attr source "warmup(atomic(constant0(packetPushEnded) + count(packetPushStarted) - count(packetPulled) - count(packetRemoved) - count(packetDropped)))"
attr title "queue length"
attr unit pk
vector 157 TimeSyncUEUE.EsteiraS1.eth[0].macLayer.queue.queue[4] queueBitLength:vector ETV
attr autoWarmupFilter false
attr interpolationmode sample-hold
attr recordingmode vector
attr source "warmup(atomic(constant0(packetPushEnded) + sum(packetLength(packetPushStarted)) - sum(packetLength(packetPulled)) - sum(packetLength(packetRemoved)) - sum(packetLength(packetDropped))))"
attr title "queue bit length"
attr unit b
vector 158 TimeSyncUEUE.EsteiraS1.eth[0].macLayer.queue.queue[5] queueLength:vector ETV
attr autoWarmupFilter false
attr interpolationmode sample-hold
attr recordingmode vector
attr source "warmup(atomic(constant0(packetPushEnded) + count(packetPushStarted) - count(packetPulled) - count(packetRemoved) - count(packetDropped)))"
attr title "queue length"
attr unit pk
vector 159 TimeSyncUEUE.EsteiraS1.eth[0].macLayer.queue.queue[5] queueBitLength:vector ETV
attr autoWarmupFilter false
attr interpolationmode sample-hold
attr recordingmode vector
attr source "warmup(atomic(constant0(packetPushEnded) + sum(packetLength(packetPushStarted)) - sum(packetLength(packetPulled)) - sum(packetLength(packetRemoved)) - sum(packetLength(packetDropped))))"
attr title "queue bit length"
attr unit b
vector 160 TimeSyncUEUE.EsteiraS1.eth[0].macLayer.queue.queue[6] queueLength:vector ETV
attr autoWarmupFilter false
attr interpolationmode sample-hold
attr recordingmode vector
attr source "warmup(atomic(constant0(packetPushEnded) + count(packetPushStarted) - count(packetPulled) - count(packetRemoved) - count(packetDropped)))"
attr title "queue length"
attr unit pk
vector 161 TimeSyncUEUE.EsteiraS1.eth[0].macLayer.queue.queue[6] queueBitLength:vector ETV
attr autoWarmupFilter false
attr interpolationmode sample-hold
attr recordingmode vector
attr source "warmup(atomic(constant0(packetPushEnded) + sum(packetLength(packetPushStarted)) - sum(packetLength(packetPulled)) - sum(packetLength(packetRemoved)) - sum(packetLength(packetDropped))))"
attr title "queue bit length"
attr unit b
vector 162 TimeSyncUEUE.EsteiraS1.eth[0].macLayer.queue.queue[7] queueLength:vector ETV
attr autoWarmupFilter false
attr interpolationmode sample-hold
attr recordingmode vector
attr source "warmup(atomic(constant0(packetPushEnded) + count(packetPushStarted) - count(packetPulled) - count(packetRemoved) - count(packetDropped)))"
attr title "queue length"
attr unit pk
vector 163 TimeSyncUEUE.EsteiraS1.eth[0].macLayer.queue.queue[7] queueBitLength:vector ETV
attr autoWarmupFilter false
attr interpolationmode sample-hold
attr recordingmode vector
attr source "warmup(atomic(constant0(packetPushEnded) + sum(packetLength(packetPushStarted)) - sum(packetLength(packetPulled)) - sum(packetLength(packetRemoved)) - sum(packetLength(packetDropped))))"
attr title "queue bit length"
attr unit b
vector 164 TimeSyncUEUE.EsteiraS1.eth[0].phyLayer.interFrameGapInserter interpacketGap:vector ETV
attr interpolationmode sample-hold
attr recordingmode vector
attr source "count(interpacketGapStarted) - count(interpacketGapEnded)"
attr title "interpacket gap state"
attr type int
vector 165 TimeSyncUEUE.EsteiraS1.eth[0].phyLayer.transmitter transmitting:vector ETV
attr interpolationmode sample-hold
attr recordingmode vector
attr source "count(transmissionStarted) - count(transmissionEnded)"
attr title "transmitting state"
attr type int
vector 166 TimeSyncUEUE.EsteiraS1.udp passedUpPk:vector(count) ETV
attr interpolationmode none
attr recordingmode vector(count)
attr source packetSentToUpper
attr title "packets passed up, count"
vector 167 TimeSyncUEUE.EsteiraS1.udp droppedPkWrongPort:vector(count) ETV
attr interpolationmode none
attr recordingmode vector(count)
attr source packetDropReasonIsNoPortFound(packetDropped)
attr title "packets dropped (wrong port), count"
vector 168 TimeSyncUEUE.EsteiraS1.udp droppedPkBadChecksum:vector(count) ETV
attr interpolationmode none
attr recordingmode vector(count)
attr source packetDropReasonIsIncorrectlyReceived(packetDropped)
attr title "packets dropped (checksum error), count"
vector 169 TimeSyncUEUE.RoboS1.eth[0].macLayer.queue queueLength:vector ETV
attr autoWarmupFilter false
attr interpolationmode sample-hold
attr recordingmode vector
attr source "warmup(atomic(constant0(localSignal(packetPushEnded)) + count(localSignal(packetPushStarted)) - count(localSignal(packetPulled)) - count(localSignal(packetRemoved)) - count(localSignal(packetDropped))))"
attr title "queue length"
attr unit pk
vector 170 TimeSyncUEUE.RoboS1.eth[0].macLayer.queue queueBitLength:vector ETV
attr autoWarmupFilter false
attr interpolationmode sample-hold
attr recordingmode vector
attr source "warmup(atomic(constant0(localSignal(packetPushEnded)) + sum(packetLength(localSignal(packetPushStarted))) - sum(packetLength(localSignal(packetPulled))) - sum(packetLength(localSignal(packetRemoved))) - sum(packetLength(localSignal(packetDropped)))))"
attr title "queue bit length"
attr unit b
vector 171 TimeSyncUEUE.RoboS1.eth[0].macLayer.queue.queue[0] queueLength:vector ETV
attr autoWarmupFilter false
attr interpolationmode sample-hold
attr recordingmode vector
attr source "warmup(atomic(constant0(packetPushEnded) + count(packetPushStarted) - count(packetPulled) - count(packetRemoved) - count(packetDropped)))"
attr title "queue length"
attr unit pk
vector 172 TimeSyncUEUE.RoboS1.eth[0].macLayer.queue.queue[0] queueBitLength:vector ETV
attr autoWarmupFilter false
attr interpolationmode sample-hold
attr recordingmode vector
attr source "warmup(atomic(constant0(packetPushEnded) + sum(packetLength(packetPushStarted)) - sum(packetLength(packetPulled)) - sum(packetLength(packetRemoved)) - sum(packetLength(packetDropped))))"
attr title "queue bit length"
attr unit b
vector 173 TimeSyncUEUE.RoboS1.eth[0].macLayer.queue.queue[1] queueLength:vector ETV
attr autoWarmupFilter false
attr interpolationmode sample-hold
attr recordingmode vector
attr source "warmup(atomic(constant0(packetPushEnded) + count(packetPushStarted) - count(packetPulled) - count(packetRemoved) - count(packetDropped)))"
attr title "queue length"
attr unit pk
vector 174 TimeSyncUEUE.RoboS1.eth[0].macLayer.queue.queue[1] queueBitLength:vector ETV
attr autoWarmupFilter false
attr interpolationmode sample-hold
attr recordingmode vector
attr source "warmup(atomic(constant0(packetPushEnded) + sum(packetLength(packetPushStarted)) - sum(packetLength(packetPulled)) - sum(packetLength(packetRemoved)) - sum(packetLength(packetDropped))))"
attr title "queue bit length"
attr unit b
vector 175 TimeSyncUEUE.RoboS1.eth[0].macLayer.queue.queue[2] queueLength:vector ETV
attr autoWarmupFilter false
attr interpolationmode sample-hold
attr recordingmode vector
attr source "warmup(atomic(constant0(packetPushEnded) + count(packetPushStarted) - count(packetPulled) - count(packetRemoved) - count(packetDropped)))"
attr title "queue length"
attr unit pk
vector 176 TimeSyncUEUE.RoboS1.eth[0].macLayer.queue.queue[2] queueBitLength:vector ETV
attr autoWarmupFilter false
attr interpolationmode sample-hold
attr recordingmode vector
attr source "warmup(atomic(constant0(packetPushEnded) + sum(packetLength(packetPushStarted)) - sum(packetLength(packetPulled)) - sum(packetLength(packetRemoved)) - sum(packetLength(packetDropped))))"
attr title "queue bit length"
attr unit b
vector 177 TimeSyncUEUE.RoboS1.eth[0].macLayer.queue.queue[3] queueLength:vector ETV
attr autoWarmupFilter false
attr interpolationmode sample-hold
attr recordingmode vector
attr source "warmup(atomic(constant0(packetPushEnded) + count(packetPushStarted) - count(packetPulled) - count(packetRemoved) - count(packetDropped)))"
attr title "queue length"
attr unit pk
vector 178 TimeSyncUEUE.RoboS1.eth[0].macLayer.queue.queue[3] queueBitLength:vector ETV
attr autoWarmupFilter false
attr interpolationmode sample-hold
attr recordingmode vector
attr source "warmup(atomic(constant0(packetPushEnded) + sum(packetLength(packetPushStarted)) - sum(packetLength(packetPulled)) - sum(packetLength(packetRemoved)) - sum(packetLength(packetDropped))))"
attr title "queue bit length"
attr unit b
vector 179 TimeSyncUEUE.RoboS1.eth[0].macLayer.queue.queue[4] queueLength:vector ETV
attr autoWarmupFilter false
attr interpolationmode sample-hold
attr recordingmode vector
attr source "warmup(atomic(constant0(packetPushEnded) + count(packetPushStarted) - count(packetPulled) - count(packetRemoved) - count(packetDropped)))"
attr title "queue length"
attr unit pk
vector 180 TimeSyncUEUE.RoboS1.eth[0].macLayer.queue.queue[4] queueBitLength:vector ETV
attr autoWarmupFilter false
attr interpolationmode sample-hold
attr recordingmode vector
attr source "warmup(atomic(constant0(packetPushEnded) + sum(packetLength(packetPushStarted)) - sum(packetLength(packetPulled)) - sum(packetLength(packetRemoved)) - sum(packetLength(packetDropped))))"
attr title "queue bit length"
attr unit b
vector 181 TimeSyncUEUE.RoboS1.eth[0].macLayer.queue.queue[5] queueLength:vector ETV
attr autoWarmupFilter false
attr interpolationmode sample-hold
attr recordingmode vector
attr source "warmup(atomic(constant0(packetPushEnded) + count(packetPushStarted) - count(packetPulled) - count(packetRemoved) - count(packetDropped)))"
attr title "queue length"
attr unit pk
[...]
292	314499 50 0 0 0 0 5 0 0 0 0
293	314549 20 0 0 0 0 2 0 0 0 0
294	314569 20 0 0 0 0 2 0 0 0 0
295	314589 10 0 0 0 0 1 0 0 0 0
296	314599 10 0 0 0 0 1 0 0 0 0
297	314609 10 0 0 0 0 1 0 0 0 0
298	314619 50 0 0 0 0 5 0 0 0 0
299	314669 50 0 0 0 0 5 0 0 0 0
300	314719 50 0 0 0 0 5 0 0 0 0
301	314769 50 0 0 0 0 5 0 0 0 0
302	314819 50 0 0 0 0 5 0 0 0 0
303	314869 50 0 0 0 0 5 0 0 0 0
304	314919 50 0 0 0 0 5 0 0 0 0
305	314969 50 0 0 0 0 5 0 0 0 0
306	315019 50 0 0 0 0 5 0 0 0 0
307	315069 50 0 0 0 0 5 0 0 0 0
308	315119 50 0 0 0 0 5 0 0 0 0
309	315169 50 0 0 0 0 5 0 0 0 0
310	315219 50 0 0 0 0 5 0 0 0 0
311	315269 50 0 0 0 0 5 0 0 0 0
312	315319 50 0 0 0 0 5 0 0 0 0
313	315369 50 0 0 0 0 5 0 0 0 0
314	315419 50 0 0 0 0 5 0 0 0 0
315	315469 50 0 0 0 0 5 0 0 0 0
316	315519 20 0 0 0 0 2 0 0 0 0
317	315539 20 0 0 0 0 2 0 0 0 0
318	315559 50 0 0 0 0 5 0 0 0 0
319	315609 50 0 0 0 0 5 0 0 0 0
320	315659 50 0 0 0 0 5 0 0 0 0
321	315709 50 0 0 0 0 5 0 0 0 0
322	315759 50 0 0 0 0 5 0 0 0 0
323	315809 50 0 0 0 0 5 0 0 0 0
324	315859 50 0 0 0 0 5 0 0 0 0
325	315909 50 0 0 0 0 5 0 0 0 0
326	315959 50 0 0 0 0 5 0 0 0 0
327	316009 50 0 0 0 0 5 0 0 0 0
328	316059 50 0 0 0 0 5 0 0 0 0
329	316109 50 0 0 0 0 5 0 0 0 0
330	316159 50 0 0 0 0 5 0 0 0 0
331	316209 50 0 0 0 0 5 0 0 0 0
332	316259 50 0 0 0 0 5 0 0 0 0
333	316309 50 0 0 0 0 5 0 0 0 0
334	316359 50 0 0 0 0 5 0 0 0 0
335	316409 50 0 0 0 0 5 0 0 0 0
336	316459 20 0 0 0 0 2 0 0 0 0
337	316479 20 0 0 0 0 2 0 0 0 0
338	316499 50 0 0 0 0 5 0 0 0 0
339	316549 50 0 0 0 0 5 0 0 0 0
340	316599 50 0 0 0 0 5 0 0 0 0
341	316649 50 0 0 0 0 5 0 0 0 0
342	316699 50 0 0 0 0 5 0 0 0 0
343	316749 50 0 0 0 0 5 0 0 0 0
344	316799 50 0 0 0 0 5 0 0 0 0
345	316849 50 0 0 0 0 5 0 0 0 0
346	316899 50 0 0 0 0 5 0 0 0 0
347	316949 50 0 0 0 0 5 0 0 0 0
348	316999 50 0 0 0 0 5 0 0 0 0
349	317049 50 0 0 0 0 5 0 0 0 0
350	317099 50 0 0 0 0 5 0 0 0 0
351	317149 50 0 0 0 0 5 0 0 0 0
352	317199 50 0 0 0 0 5 0 0 0 0
353	317249 50 0 0 0 0 5 0 0 0 0
354	317299 50 0 0 0 0 5 0 0 0 0
355	317349 50 0 0 0 0 5 0 0 0 0
356	317399 20 0 0 0 0 2 0 0 0 0
357	317419 20 0 0 0 0 2 0 0 0 0
358	317439 50 0 0 0 0 5 0 0 0 0
359	317489 50 0 0 0 0 5 0 0 0 0
360	317539 50 0 0 0 0 5 0 0 0 0
361	317589 50 0 0 0 0 5 0 0 0 0
362	317639 50 0 0 0 0 5 0 0 0 0
363	317689 50 0 0 0 0 5 0 0 0 0
364	317739 50 0 0 0 0 5 0 0 0 0
365	317789 50 0 0 0 0 5 0 0 0 0
366	317839 50 0 0 0 0 5 0 0 0 0
367	317889 50 0 0 0 0 5 0 0 0 0
368	317939 50 0 0 0 0 5 0 0 0 0
369	317989 50 0 0 0 0 5 0 0 0 0
370	318039 50 0 0 0 0 5 0 0 0 0
371	318089 50 0 0 0 0 5 0 0 0 0
372	318139 50 0 0 0 0 5 0 0 0 0
373	318189 50 0 0 0 0 5 0 0 0 0
374	318239 50 0 0 0 0 5 0 0 0 0
375	318289 50 0 0 0 0 5 0 0 0 0
376	318339 20 0 0 0 0 2 0 0 0 0
377	318359 20 0 0 0 0 2 0 0 0 0
378	318379 10 0 0 0 0 1 0 0 0 0
379	318389 10 0 0 0 0 1 0 0 0 0
380	318399 10 0 0 0 0 1 0 0 0 0
381	318409 50 0 0 0 0 5 0 0 0 0
382	318459 50 0 0 0 0 5 0 0 0 0
383	318509 50 0 0 0 0 5 0 0 0 0
384	318559 50 0 0 0 0 5 0 0 0 0
385	318609 50 0 0 0 0 5 0 0 0 0
386	318659 50 0 0 0 0 5 0 0 0 0
387	318709 50 0 0 0 0 5 0 0 0 0
388	318759 50 0 0 0 0 5 0 0 0 0
389	318809 50 0 0 0 0 5 0 0 0 0
390	318859 50 0 0 0 0 5 0 0 0 0
391	318909 50 0 0 0 0 5 0 0 0 0
392	318959 50 0 0 0 0 5 0 0 0 0
393	319009 50 0 0 0 0 5 0 0 0 0
394	319059 50 0 0 0 0 5 0 0 0 0
395	319109 50 0 0 0 0 5 0 0 0 0
396	319159 50 0 0 0 0 5 0 0 0 0
397	319209 50 0 0 0 0 5 0 0 0 0
398	319259 50 0 0 0 0 5 0 0 0 0
399	319309 20 0 0 0 0 2 0 0 0 0
400	319329 20 0 0 0 0 2 0 0 0 0
401	319349 10 0 0 0 0 1 0 0 0 0
402	319359 10 0 0 0 0 1 0 0 0 0
403	319369 10 0 0 0 0 1 0 0 0 0
404	319379 50 0 0 0 0 5 0 0 0 0
405	319429 50 0 0 0 0 5 0 0 0 0
406	319479 50 0 0 0 0 5 0 0 0 0
407	319529 50 0 0 0 0 5 0 0 0 0
408	319579 50 0 0 0 0 5 0 0 0 0
409	319629 50 0 0 0 0 5 0 0 0 0
410	319679 50 0 0 0 0 5 0 0 0 0
411	319729 50 0 0 0 0 5 0 0 0 0
412	319779 50 0 0 0 0 5 0 0 0 0
413	319829 50 0 0 0 0 5 0 0 0 0
414	319879 50 0 0 0 0 5 0 0 0 0
415	319929 50 0 0 0 0 5 0 0 0 0
416	319979 50 0 0 0 0 5 0 0 0 0
417	320029 50 0 0 0 0 5 0 0 0 0
418	320079 50 0 0 0 0 5 0 0 0 0
419	320129 50 0 0 0 0 5 0 0 0 0
420	320179 50 0 0 0 0 5 0 0 0 0
421	320229 50 0 0 0 0 5 0 0 0 0
422	320279 20 0 0 0 0 2 0 0 0 0
423	320299 20 0 0 0 0 2 0 0 0 0
424	320319 50 0 0 0 0 5 0 0 0 0
425	320369 50 0 0 0 0 5 0 0 0 0
426	320419 50 0 0 0 0 5 0 0 0 0
427	320469 50 0 0 0 0 5 0 0 0 0
428	320519 50 0 0 0 0 5 0 0 0 0
429	320569 50 0 0 0 0 5 0 0 0 0
430	320619 50 0 0 0 0 5 0 0 0 0
431	320669 50 0 0 0 0 5 0 0 0 0
432	320719 50 0 0 0 0 5 0 0 0 0
433	320769 50 0 0 0 0 5 0 0 0 0
434	320819 50 0 0 0 0 5 0 0 0 0
435	320869 50 0 0 0 0 5 0 0 0 0
436	320919 50 0 0 0 0 5 0 0 0 0
437	320969 50 0 0 0 0 5 0 0 0 0
438	321019 50 0 0 0 0 5 0 0 0 0
439	321069 50 0 0 0 0 5 0 0 0 0
440	321119 50 0 0 0 0 5 0 0 0 0
441	321169 50 0 0 0 0 5 0 0 0 0
442	321219 20 0 0 0 0 2 0 0 0 0
443	321239 20 0 0 0 0 2 0 0 0 0
444	321259 50 0 0 0 0 5 0 0 0 0
445	321309 50 0 0 0 0 5 0 0 0 0
446	321359 50 0 0 0 0 5 0 0 0 0
447	321409 50 0 0 0 0 5 0 0 0 0
448	321459 50 0 0 0 0 5 0 0 0 0
449	321509 50 0 0 0 0 5 0 0 0 0
450	321559 50 0 0 0 0 5 0 0 0 0
451	321609 50 0 0 0 0 5 0 0 0 0
452	321659 50 0 0 0 0 5 0 0 0 0
453	321709 50 0 0 0 0 5 0 0 0 0
454	321759 50 0 0 0 0 5 0 0 0 0
455	321809 50 0 0 0 0 5 0 0 0 0
456	321859 50 0 0 0 0 5 0 0 0 0
457	321909 50 0 0 0 0 5 0 0 0 0
458	321959 50 0 0 0 0 5 0 0 0 0
459	322009 50 0 0 0 0 5 0 0 0 0
460	322059 50 0 0 0 0 5 0 0 0 0
461	322109 50 0 0 0 0 5 0 0 0 0
462	322159 20 0 0 0 0 2 0 0 0 0
463	322179 20 0 0 0 0 2 0 0 0 0
464	322199 10 0 0 0 0 1 0 0 0 0
465	322209 10 0 0 0 0 1 0 0 0 0
466	322219 10 0 0 0 0 1 0 0 0 0
467	322229 20 0 0 0 0 2 0 0 0 0
468	322249 20 0 0 0 0 2 0 0 0 0
469	322269 50 0 0 0 0 5 0 0 0 0
470	322319 50 0 0 0 0 5 0 0 0 0
471	322369 20 0 0 0 0 2 0 0 0 0
472	322389 20 0 0 0 0 2 0 0 0 0
473	322409 20 0 0 0 0 2 0 0 0 0
474	322429 50 0 0 0 0 5 0 0 0 0
475	322479 50 0 0 0 0 5 0 0 0 0
476	322529 20 0 0 0 0 2 0 0 0 0
477	322549 20 0 0 0 0 2 0 0 0 0
478	322569 20 0 0 0 0 2 0 0 0 0
479	322589 50 0 0 0 0 5 0 0 0 0
480	322639 50 0 0 0 0 5 0 0 0 0
481	322689 20 0 0 0 0 2 0 0 0 0
482	322709 20 0 0 0 0 2 0 0 0 0
483	322729 20 0 0 0 0 2 0 0 0 0
484	322749 50 0 0 0 0 5 0 0 0 0
485	322799 50 0 0 0 0 5 0 0 0 0
486	322849 20 0 0 0 0 2 0 0 0 0
487	322869 20 0 0 0 0 2 0 0 0 0
488	322889 20 0 0 0 0 2 0 0 0 0
489	322909 20 0 0 0 0 2 0 0 0 0
490	322929 50 0 0 0 0 5 0 0 0 0
491	322979 50 0 0 0 0 5 0 0 0 0
492	323029 20 0 0 0 0 2 0 0 0 0
493	323049 20 0 0 0 0 2 0 0 0 0
494	323069 20 0 0 0 0 2 0 0 0 0
495	323089 50 0 0 0 0 5 0 0 0 0
496	323139 50 0 0 0 0 5 0 0 0 0
497	323189 20 0 0 0 0 2 0 0 0 0
498	323209 20 0 0 0 0 2 0 0 0 0
499	323229 20 0 0 0 0 2 0 0 0 0
500	323249 50 0 0 0 0 5 0 0 0 0
501	323299 50 0 0 0 0 5 0 0 0 0
502	323349 20 0 0 0 0 2 0 0 0 0
503	323369 20 0 0 0 0 2 0 0 0 0
504	323389 20 0 0 0 0 2 0 0 0 0
505	323409 50 0 0 0 0 5 0 0 0 0
506	323459 50 0 0 0 0 5 0 0 0 0
507	323509 20 0 0 0 0 2 0 0 0 0
508	323529 20 0 0 0 0 2 0 0 0 0
509	323549 20 0 0 0 0 2 0 0 0 0
510	323569 20 0 0 0 0 2 0 0 0 0
511	323589 50 0 0 0 0 5 0 0 0 0
512	323639 50 0 0 0 0 5 0 0 0 0
513	323689 20 0 0 0 0 2 0 0 0 0
514	323709 20 0 0 0 0 2 0 0 0 0
515	323729 20 0 0 0 0 2 0 0 0 0
516	323749 50 0 0 0 0 5 0 0 0 0
517	323799 50 0 0 0 0 5 0 0 0 0
518	323849 20 0 0 0 0 2 0 0 0 0
519	323869 20 0 0 0 0 2 0 0 0 0
520	323889 20 0 0 0 0 2 0 0 0 0
521	323909 50 0 0 0 0 5 0 0 0 0
522	323959 50 0 0 0 0 5 0 0 0 0
523	324009 20 0 0 0 0 2 0 0 0 0
524	324029 20 0 0 0 0 2 0 0 0 0
525	324049 20 0 0 0 0 2 0 0 0 0
526	324069 50 0 0 0 0 5 0 0 0 0
527	324119 50 0 0 0 0 5 0 0 0 0
528	324169 20 0 0 0 0 2 0 0 0 0
529	324189 20 0 0 0 0 2 0 0 0 0
530	324209 20 0 0 0 0 2 0 0 0 0
531	324229 20 0 0 0 0 2 0 0 0 0
532	324249 50 0 0 0 0 5 0 0 0 0
533	324299 50 0 0 0 0 5 0 0 0 0
534	324349 20 0 0 0 0 2 0 0 0 0
535	324369 20 0 0 0 0 2 0 0 0 0
536	324389 20 0 0 0 0 2 0 0 0 0
537	324409 50 0 0 0 0 5 0 0 0 0
538	324459 50 0 0 0 0 5 0 0 0 0
539	324509 20 0 0 0 0 2 0 0 0 0
540	324529 20 0 0 0 0 2 0 0 0 0
541	324549 20 0 0 0 0 2 0 0 0 0
542	324569 50 0 0 0 0 5 0 0 0 0
543	324619 50 0 0 0 0 5 0 0 0 0
544	324669 20 0 0 0 0 2 0 0 0 0
545	324689 20 0 0 0 0 2 0 0 0 0
546	324709 20 0 0 0 0 2 0 0 0 0
547	324729 50 0 0 0 0 5 0 0 0 0
548	324779 50 0 0 0 0 5 0 0 0 0
549	324829 20 0 0 0 0 2 0 0 0 0
550	324849 20 0 0 0 0 2 0 0 0 0
551	324869 10 0 0 0 0 1 0 0 0 0
552	324879 10 0 0 0 0 1 1 1 1 1
553	324889 10 0 0 0 0 1 0 0 0 0
554	324899 10 0 0 0 0 1 1 1 1 1
555	324909 10 0 0 0 0 1 0 0 0 0
556	324919 10 0 0 0 0 1 1 1 1 1
557	324929 10 0 0 0 0 1 0 0 0 0
558	324939 10 0 0 0 0 1 1 1 1 1
559	324949 10 0 0 0 0 1 0 0 0 0
560	324959 10 0 0 0 0 1 1 1 1 1
561	324969 10 0 0 0 0 1 0 0 0 0
562	324979 10 0 0 0 0 1 1 1 1 1
563	324989 10 0 0 0 0 1 0 0 0 0
564	324999 10 0 0 0 0 1 1 1 1 1
565	325009 10 0 0 0 0 1 0 0 0 0
566	325019 10 0 0 0 0 1 1 1 1 1
567	325029 10 0 0 0 0 1 0 0 0 0
568	325039 10 0 0 0 0 1 1 1 1 1
569	325049 10 0 0 0 0 1 0 0 0 0
570	325059 10 0 0 0 0 1 1 1 1 1
571	325069 10 0 0 0 0 1 0 0 0 0
572	325079 10 0 0 0 0 1 1 1 1 1
573	325089 10 0 0 0 0 1 0 0 0 0
574	325099 10 0 0 0 0 1 1 1 1 1
575	325109 10 0 0 0 0 1 0 0 0 0
576	325119 10 0 0 0 0 1 1 1 1 1
577	325129 10 0 0 0 0 1 0 0 0 0
578	325139 10 0 0 0 0 1 1 1 1 1
579	325149 10 0 0 0 0 1 0 0 0 0
580	325159 10 0 0 0 0 1 1 1 1 1
581	325169 10 0 0 0 0 1 0 0 0 0
582	325179 10 0 0 0 0 1 1 1 1 1
583	325189 10 0 0 0 0 1 0 0 0 0
584	325199 10 0 0 0 0 1 1 1 1 1
585	325209 10 0 0 0 0 1 0 0 0 0
586	325219 10 0 0 0 0 1 1 1 1 1
587	325229 10 0 0 0 0 1 0 0 0 0
588	325239 10 0 0 0 0 1 1 1 1 1
589	325249 10 0 0 0 0 1 0 0 0 0
590	325259 10 0 0 0 0 1 1 1 1 1
591	325269 10 0 0 0 0 1 0 0 0 0
592	325279 10 0 0 0 0 1 1 1 1 1
593	325289 10 0 0 0 0 1 0 0 0 0
594	325299 10 0 0 0 0 1 1 1 1 1
595	325309 10 0 0 0 0 1 0 0 0 0
596	325319 10 0 0 0 0 1 1 1 1 1
597	325329 10 0 0 0 0 1 0 0 0 0
598	325339 10 0 0 0 0 1 1 1 1 1
599	325349 10 0 0 0 0 1 0 0 0 0
600	325359 10 0 0 0 0 1 1 1 1 1
601	325369 10 0 0 0 0 1 0 0 0 0
602	325379 10 0 0 0 0 1 1 1 1 1
603	325389 10 0 0 0 0 1 0 0 0 0
604	325399 10 0 0 0 0 1 1 1 1 1
605	325409 10 0 0 0 0 1 0 0 0 0
606	325419 10 0 0 0 0 1 1 1 1 1
607	325429 10 0 0 0 0 1 0 0 0 0
608	325439 10 0 0 0 0 1 1 1 1 1
609	325449 10 0 0 0 0 1 0 0 0 0
610	325459 10 0 0 0 0 1 1 1 1 1
611	325469 10 0 0 0 0 1 0 0 0 0
612	325479 10 0 0 0 0 1 1 1 1 1
613	325489 10 0 0 0 0 1 0 0 0 0
614	325499 10 0 0 0 0 1 1 1 1 1
615	325509 10 0 0 0 0 1 0 0 0 0
616	325519 10 0 0 0 0 1 1 1 1 1
617	325529 10 0 0 0 0 1 0 0 0 0
618	325539 10 0 0 0 0 1 1 1 1 1
619	325549 10 0 0 0 0 1 0 0 0 0
620	325559 10 0 0 0 0 1 1 1 1 1
621	325569 10 0 0 0 0 1 0 0 0 0
622	325579 10 0 0 0 0 1 1 1 1 1
623	325589 10 0 0 0 0 1 0 0 0 0
624	325599 10 0 0 0 0 1 1 1 1 1
625	325609 10 0 0 0 0 1 0 0 0 0
626	325619 10 0 0 0 0 1 1 1 1 1
627	325629 10 0 0 0 0 1 0 0 0 0
628	325639 10 0 0 0 0 1 1 1 1 1
629	325649 10 0 0 0 0 1 0 0 0 0
630	325659 10 0 0 0 0 1 1 1 1 1
631	325669 10 0 0 0 0 1 0 0 0 0
632	325679 10 0 0 0 0 1 0 0 0 0
633	325689 10 0 0 0 0 1 1 1 1 1
634	325699 10 0 0 0 0 1 0 0 0 0
635	325709 10 0 0 0 0 1 1 1 1 1
636	325719 10 0 0 0 0 1 0 0 0 0
637	325729 10 0 0 0 0 1 1 1 1 1
638	325739 10 0 0 0 0 1 0 0 0 0
639	325749 10 0 0 0 0 1 1 1 1 1
640	325759 10 0 0 0 0 1 0 0 0 0
641	325769 10 0 0 0 0 1 1 1 1 1
642	325779 10 0 0 0 0 1 0 0 0 0
643	325789 10 0 0 0 0 1 1 1 1 1
644	325799 10 0 0 0 0 1 0 0 0 0
645	325809 10 0 0 0 0 1 1 1 1 1
646	325819 10 0 0 0 0 1 0 0 0 0
647	325829 10 0 0 0 0 1 1 1 1 1
648	325839 10 0 0 0 0 1 0 0 0 0
649	325849 10 0 0 0 0 1 0 0 0 0
650	325859 10 0 0 0 0 1 1 1 1 1
651	325869 10 0 0 0 0 1 0 0 0 0
652	325879 10 0 0 0 0 1 1 1 1 1
653	325889 10 0 0 0 0 1 0 0 0 0
654	325899 10 0 0 0 0 1 1 1 1 1
655	325909 10 0 0 0 0 1 0 0 0 0
656	325919 10 0 0 0 0 1 1 1 1 1
657	325929 10 0 0 0 0 1 0 0 0 0
658	325939 10 0 0 0 0 1 1 1 1 1
659	325949 10 0 0 0 0 1 0 0 0 0
660	325959 10 0 0 0 0 1 1 1 1 1
661	325969 10 0 0 0 0 1 0 0 0 0
662	325979 10 0 0 0 0 1 1 1 1 1
663	325989 10 0 0 0 0 1 0 0 0 0
664	325999 10 0 0 0 0 1 1 1 1 1
665	326009 10 0 0 0 0 1 0 0 0 0
666	326019 10 0 0 0 0 1 0 0 0 0
667	326029 10 0 0 0 0 1 1 1 1 1
668	326039 10 0 0 0 0 1 0 0 0 0
669	326049 10 0 0 0 0 1 1 1 1 1
670	326059 10 0 0 0 0 1 0 0 0 0
671	326069 10 0 0 0 0 1 1 1 1 1
672	326079 10 0 0 0 0 1 0 0 0 0
673	326089 10 0 0 0 0 1 1 1 1 1
674	326099 10 0 0 0 0 1 0 0 0 0
675	326109 10 0 0 0 0 1 1 1 1 1
676	326119 10 0 0 0 0 1 0 0 0 0
677	326129 10 0 0 0 0 1 1 1 1 1
678	326139 10 0 0 0 0 1 0 0 0 0
679	326149 10 0 0 0 0 1 1 1 1 1
680	326159 10 0 0 0 0 1 0 0 0 0
681	326169 10 0 0 0 0 1 1 1 1 1
682	326179 10 0 0 0 0 1 0 0 0 0
683	326189 10 0 0 0 0 1 0 0 0 0
684	326199 10 0 0 0 0 1 1 1 1 1
685	326209 10 0 0 0 0 1 0 0 0 0
686	326219 10 0 0 0 0 1 1 1 1 1
687	326229 10 0 0 0 0 1 0 0 0 0
688	326239 10 0 0 0 0 1 1 1 1 1
689	326249 10 0 0 0 0 1 0 0 0 0
690	326259 10 0 0 0 0 1 1 1 1 1
691	326269 10 0 0 0 0 1 0 0 0 0
692	326279 10 0 0 0 0 1 1 1 1 1
693	326289 10 0 0 0 0 1 0 0 0 0
694	326299 10 0 0 0 0 1 1 1 1 1
695	326309 10 0 0 0 0 1 0 0 0 0
696	326319 10 0 0 0 0 1 1 1 1 1
697	326329 10 0 0 0 0 1 0 0 0 0
698	326339 10 0 0 0 0 1 1 1 1 1
699	326349 10 0 0 0 0 1 0 0 0 0
700	326359 10 0 0 0 0 1 0 0 0 0
701	326369 10 0 0 0 0 1 1 1 1 1
702	326379 10 0 0 0 0 1 0 0 0 0
703	326389 10 0 0 0 0 1 1 1 1 1
704	326399 10 0 0 0 0 1 0 0 0 0
705	326409 10 0 0 0 0 1 1 1 1 1
706	326419 10 0 0 0 0 1 0 0 0 0
707	326429 10 0 0 0 0 1 1 1 1 1
708	326439 10 0 0 0 0 1 0 0 0 0
709	326449 10 0 0 0 0 1 1 1 1 1
710	326459 10 0 0 0 0 1 0 0 0 0
711	326469 10 0 0 0 0 1 1 1 1 1
712	326479 10 0 0 0 0 1 0 0 0 0
713	326489 10 0 0 0 0 1 1 1 1 1
714	326499 10 0 0 0 0 1 0 0 0 0
715	326509 10 0 0 0 0 1 1 1 1 1
716	326519 10 0 0 0 0 1 0 0 0 0
717	326529 10 0 0 0 0 1 1 1 1 1
718	326539 10 0 0 0 0 1 0 0 0 0
719	326549 10 0 0 0 0 1 1 1 1 1
720	326559 10 0 0 0 0 1 0 0 0 0
721	326569 10 0 0 0 0 1 1 1 1 1
722	326579 10 0 0 0 0 1 0 0 0 0
723	326589 10 0 0 0 0 1 1 1 1 1
724	326599 10 0 0 0 0 1 0 0 0 0
725	326609 10 0 0 0 0 1 1 1 1 1
726	326619 10 0 0 0 0 1 0 0 0 0
727	326629 10 0 0 0 0 1 1 1 1 1
728	326639 10 0 0 0 0 1 0 0 0 0
729	326649 10 0 0 0 0 1 1 1 1 1
730	326659 10 0 0 0 0 1 0 0 0 0
731	326669 10 0 0 0 0 1 1 1 1 1
732	326679 10 0 0 0 0 1 0 0 0 0
733	326689 10 0 0 0 0 1 1 1 1 1
734	326699 10 0 0 0 0 1 0 0 0 0
735	326709 10 0 0 0 0 1 1 1 1 1
736	326719 10 0 0 0 0 1 0 0 0 0
737	326729 10 0 0 0 0 1 1 1 1 1
738	326739 10 0 0 0 0 1 0 0 0 0
739	326749 10 0 0 0 0 1 1 1 1 1
740	326759 10 0 0 0 0 1 0 0 0 0
741	326769 10 0 0 0 0 1 1 1 1 1
742	326779 10 0 0 0 0 1 0 0 0 0
743	326789 10 0 0 0 0 1 1 1 1 1
744	326799 10 0 0 0 0 1 0 0 0 0
745	326809 10 0 0 0 0 1 1 1 1 1
746	326819 10 0 0 0 0 1 0 0 0 0
747	326829 10 0 0 0 0 1 1 1 1 1
748	326839 10 0 0 0 0 1 0 0 0 0
749	326849 10 0 0 0 0 1 0 0 0 0
750	326859 10 0 0 0 0 1 1 1 1 1
751	326869 10 0 0 0 0 1 0 0 0 0
752	326879 10 0 0 0 0 1 1 1 1 1
753	326889 10 0 0 0 0 1 0 0 0 0
754	326899 10 0 0 0 0 1 1 1 1 1
755	326909 10 0 0 0 0 1 0 0 0 0
756	326919 10 0 0 0 0 1 1 1 1 1
757	326929 10 0 0 0 0 1 0 0 0 0
758	326939 10 0 0 0 0 1 1 1 1 1
759	326949 10 0 0 0 0 1 0 0 0 0
760	326959 10 0 0 0 0 1 1 1 1 1
761	326969 10 0 0 0 0 1 0 0 0 0
762	326979 10 0 0 0 0 1 1 1 1 1
763	326989 10 0 0 0 0 1 0 0 0 0
764	326999 10 0 0 0 0 1 1 1 1 1
765	327009 10 0 0 0 0 1 0 0 0 0
766	327019 10 0 0 0 0 1 0 0 0 0
767	327029 10 0 0 0 0 1 1 1 1 1
768	327039 10 0 0 0 0 1 0 0 0 0
769	327049 10 0 0 0 0 1 1 1 1 1
770	327059 10 0 0 0 0 1 0 0 0 0
771	327069 10 0 0 0 0 1 1 1 1 1
772	327079 10 0 0 0 0 1 0 0 0 0
773	327089 10 0 0 0 0 1 1 1 1 1
774	327099 10 0 0 0 0 1 0 0 0 0
775	327109 10 0 0 0 0 1 1 1 1 1
776	327119 10 0 0 0 0 1 0 0 0 0
777	327129 10 0 0 0 0 1 1 1 1 1
778	327139 10 0 0 0 0 1 0 0 0 0
779	327149 10 0 0 0 0 1 1 1 1 1
780	327159 10 0 0 0 0 1 0 0 0 0
781	327169 10 0 0 0 0 1 1 1 1 1
782	327179 10 0 0 0 0 1 0 0 0 0
783	327189 10 0 0 0 0 1 0 0 0 0
784	327199 10 0 0 0 0 1 1 1 1 1
785	327209 10 0 0 0 0 1 0 0 0 0
786	327219 10 0 0 0 0 1 1 1 1 1
787	327229 10 0 0 0 0 1 0 0 0 0
788	327239 10 0 0 0 0 1 1 1 1 1
789	327249 10 0 0 0 0 1 0 0 0 0
790	327259 10 0 0 0 0 1 1 1 1 1
791	327269 10 0 0 0 0 1 0 0 0 0
792	327279 10 0 0 0 0 1 1 1 1 1
793	327289 10 0 0 0 0 1 0 0 0 0
794	327299 10 0 0 0 0 1 1 1 1 1
795	327309 10 0 0 0 0 1 0 0 0 0
796	327319 10 0 0 0 0 1 1 1 1 1
797	327329 10 0 0 0 0 1 0 0 0 0
798	327339 10 0 0 0 0 1 1 1 1 1
799	327349 10 0 0 0 0 1 0 0 0 0
800	327359 10 0 0 0 0 1 1 1 1 1
801	327369 10 0 0 0 0 1 0 0 0 0
802	327379 10 0 0 0 0 1 1 1 1 1
803	327389 10 0 0 0 0 1 0 0 0 0
804	327399 10 0 0 0 0 1 1 1 1 1
805	327409 10 0 0 0 0 1 0 0 0 0
806	327419 10 0 0 0 0 1 1 1 1 1
807	327429 10 0 0 0 0 1 0 0 0 0
808	327439 10 0 0 0 0 1 1 1 1 1
809	327449 10 0 0 0 0 1 0 0 0 0
810	327459 10 0 0 0 0 1 1 1 1 1
811	327469 10 0 0 0 0 1 0 0 0 0
812	327479 10 0 0 0 0 1 1 1 1 1
813	327489 10 0 0 0 0 1 0 0 0 0
814	327499 10 0 0 0 0 1 1 1 1 1
815	327509 10 0 0 0 0 1 0 0 0 0
816	327519 10 0 0 0 0 1 1 1 1 1
817	327529 10 0 0 0 0 1 0 0 0 0
818	327539 10 0 0 0 0 1 1 1 1 1
819	327549 10 0 0 0 0 1 0 0 0 0
820	327559 10 0 0 0 0 1 1 1 1 1
821	327569 10 0 0 0 0 1 0 0 0 0
822	327579 10 0 0 0 0 1 1 1 1 1
823	327589 10 0 0 0 0 1 0 0 0 0
824	327599 10 0 0 0 0 1 1 1 1 1
825	327609 10 0 0 0 0 1 0 0 0 0
826	327619 10 0 0 0 0 1 1 1 1 1
827	327629 10 0 0 0 0 1 0 0 0 0
828	327639 10 0 0 0 0 1 1 1 1 1
829	327649 10 0 0 0 0 1 0 0 0 0
830	327659 10 0 0 0 0 1 1 1 1 1
831	327669 10 0 0 0 0 1 0 0 0 0
832	327679 10 0 0 0 0 1 0 0 0 0
833	327689 10 0 0 0 0 1 1 1 1 1
834	327699 10 0 0 0 0 1 0 0 0 0
835	327709 10 0 0 0 0 1 1 1 1 1
836	327719 10 0 0 0 0 1 0 0 0 0
837	327729 10 0 0 0 0 1 1 1 1 1
838	327739 10 0 0 0 0 1 0 0 0 0
839	327749 10 0 0 0 0 1 1 1 1 1
840	327759 10 0 0 0 0 1 0 0 0 0
841	327769 10 0 0 0 0 1 1 1 1 1
842	327779 10 0 0 0 0 1 0 0 0 0
843	327789 10 0 0 0 0 1 1 1 1 1
844	327799 10 0 0 0 0 1 0 0 0 0
845	327809 10 0 0 0 0 1 1 1 1 1
846	327819 10 0 0 0 0 1 0 0 0 0
847	327829 10 0 0 0 0 1 1 1 1 1
848	327839 10 0 0 0 0 1 0 0 0 0
849	327849 10 0 0 0 0 1 0 0 0 0
850	327859 10 0 0 0 0 1 1 1 1 1
851	327869 10 0 0 0 0 1 0 0 0 0
852	327879 10 0 0 0 0 1 1 1 1 1
853	327889 10 0 0 0 0 1 0 0 0 0
854	327899 10 0 0 0 0 1 1 1 1 1
855	327909 10 0 0 0 0 1 0 0 0 0
856	327919 10 0 0 0 0 1 1 1 1 1
857	327929 10 0 0 0 0 1 0 0 0 0
858	327939 10 0 0 0 0 1 1 1 1 1
859	327949 10 0 0 0 0 1 0 0 0 0
860	327959 10 0 0 0 0 1 1 1 1 1
861	327969 10 0 0 0 0 1 0 0 0 0
862	327979 10 0 0 0 0 1 1 1 1 1
863	327989 10 0 0 0 0 1 0 0 0 0
864	327999 10 0 0 0 0 1 1 1 1 1
865	328009 10 0 0 0 0 1 0 0 0 0
866	328019 10 0 0 0 0 1 0 0 0 0
867	328029 10 0 0 0 0 1 1 1 1 1
868	328039 10 0 0 0 0 1 0 0 0 0
869	328049 10 0 0 0 0 1 1 1 1 1
870	328059 10 0 0 0 0 1 0 0 0 0
871	328069 10 0 0 0 0 1 1 1 1 1
872	328079 10 0 0 0 0 1 0 0 0 0
873	328089 10 0 0 0 0 1 1 1 1 1
874	328099 10 0 0 0 0 1 0 0 0 0
875	328109 10 0 0 0 0 1 1 1 1 1
876	328119 10 0 0 0 0 1 0 0 0 0
877	328129 10 0 0 0 0 1 1 1 1 1
878	328139 10 0 0 0 0 1 0 0 0 0
879	328149 10 0 0 0 0 1 1 1 1 1
880	328159 10 0 0 0 0 1 0 0 0 0
881	328169 10 0 0 0 0 1 1 1 1 1
882	328179 10 0 0 0 0 1 0 0 0 0
883	328189 10 0 0 0 0 1 1 1 1 1
884	328199 10 0 0 0 0 1 0 0 0 0
885	328209 10 0 0 0 0 1 1 1 1 1
886	328219 10 0 0 0 0 1 0 0 0 0
887	328229 10 0 0 0 0 1 1 1 1 1
888	328239 10 0 0 0 0 1 0 0 0 0
889	328249 10 0 0 0 0 1 1 1 1 1
890	328259 10 0 0 0 0 1 0 0 0 0
891	328269 10 0 0 0 0 1 1 1 1 1
892	328279 10 0 0 0 0 1 0 0 0 0
893	328289 10 0 0 0 0 1 1 1 1 1
894	328299 10 0 0 0 0 1 0 0 0 0
895	328309 10 0 0 0 0 1 1 1 1 1
896	328319 10 0 0 0 0 1 0 0 0 0
897	328329 10 0 0 0 0 1 1 1 1 1
898	328339 10 0 0 0 0 1 0 0 0 0
899	328349 10 0 0 0 0 1 0 0 0 0
900	328359 10 0 0 0 0 1 1 1 1 1
901	328369 10 0 0 0 0 1 0 0 0 0
902	328379 10 0 0 0 0 1 1 1 1 1
903	328389 10 0 0 0 0 1 0 0 0 0
904	328399 10 0 0 0 0 1 1 1 1 1
905	328409 10 0 0 0 0 1 0 0 0 0
906	328419 10 0 0 0 0 1 1 1 1 1
907	328429 10 0 0 0 0 1 0 0 0 0
908	328439 10 0 0 0 0 1 1 1 1 1
909	328449 10 0 0 0 0 1 0 0 0 0
910	328459 10 0 0 0 0 1 1 1 1 1
911	328469 10 0 0 0 0 1 0 0 0 0
912	328479 10 0 0 0 0 1 1 1 1 1
913	328489 10 0 0 0 0 1 0 0 0 0
914	328499 10 0 0 0 0 1 1 1 1 1
915	328509 10 0 0 0 0 1 0 0 0 0

