version 3
run QFITimeAux-0-20250107-02:13:00-710501
attr configname QFITimeAux
attr datetime 20250107-02:13:00
attr datetimef 20250107-021300
attr experiment QFITimeAux
attr inifile omnetpp.ini
attr iterationvars ""
attr iterationvarsd ""
attr iterationvarsf ""
attr measurement ""
attr network TimeSyncUEUE
attr processid 710501
attr repetition 0
attr replication #0
attr resultdir results
attr runnumber 0
attr seedset 0
config image-path ../../../inet4.5-2/images
config extends DL3,QFI
config extends DL
config *.FGS.**.clock.typename IdealClock
config *.SwitchDN.clock.oscillator.typename RandomDriftOscillator
config **.clock.oscillator.typename ConstantDriftOscillator
config *.SwitchDN.clock.oscillator.driftRate -100ppm
config *.SwitchDN.clock.oscillator.changeInterval 12.5ms
config *.SwitchDN.clock.oscillator.driftRateChange "uniform(-10ppm, 10ppm)"
config *.*.clock.oscillator.driftRate 00ppm
config *.**.hasTimeSynchronization true
config *.SwitchDN.gptp.gptpNodeType "\"MASTER_NODE\""
config *.SwitchDN.gptp.masterPorts "[\"eth0\",\"eth1\"]"
config *.SwitchDN.gptp.slavePort "\"\""
config *.SwitchS*.gptp.slavePort "\"eth0\""
config *.SwitchS1.gptp.masterPorts "[\"eth1\",\"eth2\",\"eth3\",\"eth4\"]"
config *.SwitchS2.gptp.masterPorts "[\"eth1\",\"eth2\"]"
config *.SwitchS3.gptp.masterPorts "[\"eth1\",\"eth2\"]"
config *.FGS.nwtt[*].gptp.domain[*].slavePort "\"eth0\""
config *.FGS.nwtt[*].gptp.domain[*].masterPorts "[\"tt0\",\"tt1\",\"tt2\"]"
config *.FGS.dstt[*].gptp.domain[*].slavePort "\"tt0\""
config *.FGS.dstt[*].gptp.domain[*].masterPorts "[\"eth0\"]"
config **.referenceClock "\"SwitchDN.clock\""
config *.visualizer.dataLinkVisualizer[0].displayLinks true
config *.visualizer.dataLinkVisualizer[0].activityLevel "\"protocol\""
config *.visualizer.dataLinkVisualizer[0].packetFilter "\"GptpSync\""
config *.visualizer.dataLinkVisualizer[0].lineColor "\"blue2\""
config *.visualizer.numInfoVisualizers 1
config *.visualizer.infoVisualizer[0].modules "\"*.*.clock\""
config *.SwitchDN.clock.displayStringTextFormat "\"time: %T\""
config *.*.clock.displayStringTextFormat "\"diff: %d\""
config extends Apps0
config *.FGS.*.delayQFI "{3: rngProvider(\"histogramContainer\",\"s26\"),\n\t\t\t\t\t\t4: rngProvider(\"histogramContainer\",\"s20\"),\n\t\t\t\t\t\t66: rngProvider(\"histogramContainer\",\"s4\"),\n\t\t\t\t\t\t80: rngProvider(\"histogramContainer\",\"s6\"),\n\t\t\t\t\t\t83: rngProvider(\"histogramContainer\",\"s25\"),\n\t\t\t\t\t\t86: rngProvider(\"histogramContainer\",\"s19\"),\n\t\t\t\t\t\t87: rngProvider(\"histogramContainer\",\"gPTP\")}"
config *.*.hasOutgoingStreams true
config *.*.hasEgressTrafficShaping true
config *.PLC.bridging.streamIdentifier.identifier.mapping "[{stream: \"pcp5\", packetFilter: expr(!has(gptp) && udp.destPort > 1090)},{stream: \"pcp6\", packetFilter: expr(!has(gptp) && udp.destPort < 1090)}]"
config *.PLC.bridging.streamCoder.encoder.mapping "[{stream: \"pcp5\", pcp: 5},{stream: \"pcp\", pcp: 6}]"
config *.Sensor*.bridging.streamIdentifier.identifier.mapping "[{stream: \"pcp1\", packetFilter: expr(!has(gptp) && udp.destPort < 1090)}]"
config *.Sensor*.bridging.streamCoder.encoder.mapping "[{stream: \"pcp1\", pcp: 1}]"
config *.Camera*.bridging.streamIdentifier.identifier.mapping "[{stream: \"pcp3\", packetFilter: expr(!has(gptp) && udp.destPort < 1090)}]"
config *.Camera*.bridging.streamCoder.encoder.mapping "[{stream: \"pcp3\", pcp: 3}]"
config *.Esteira*.bridging.streamIdentifier.identifier.mapping "[{stream: \"pcp0\", packetFilter: expr(!has(gptp) && udp.destPort < 1090)}]"
config *.Esteira*.bridging.streamCoder.encoder.mapping "[{stream: \"pcp0\", pcp: 0}]"
config *.Robo*.bridging.streamIdentifier.identifier.mapping "[{stream: \"pcp4\", packetFilter: expr(!has(gptp) && udp.destPort < 1090)}]"
config *.Robo*.bridging.streamCoder.encoder.mapping "[{stream: \"pcp4\", pcp: 4}]"
config *.Sensor*.numApps 1
config *.Sensor*.hasOutgoingStreams true
config *.Sensor*.app[0].typename UdpSourceApp
config *.SensorS1.app[0].display-name NovaPeca
config *.SensorS3.app[0].display-name PecasNaCaixa
config *.Sensor*.app[0].io.destAddress "\"PLC\""
config *.SensorS1.app[0].io.destPort 1011
config *.SensorS3.app[0].io.destPort 1031
config *.SensorS*.app[0].source.packetLength 64B
config *.SensorS*.app[0].source.productionInterval 20ms
config *.SensorS*.app[0].source.initialProductionOffset 2s
config *.CameraS1.numApps 1
config *.CameraS1.hasOutgoingStreams true
config *.CameraS1.app[0].io.destAddress "\"PLC\""
config *.CameraS1.app[0].typename UdpSourceApp
config *.CameraS1.app[0].display-name StatusPeca
config *.CameraS1.app[0].io.destPort 1012
config *.CameraS1.app[0].source.packetLength "1500B - 54B"
config *.CameraS1.app[0].source.productionInterval 15ms
config *.CameraS1.app[0].source.initialProductionOffset 2.0s
config *.RoboS*.numApps 2
config *.RoboS*.hasOutgoingStreams true
config *.RoboS*.hasIncomingStreams true
config *.RoboS*.app[0].io.destAddress "\"PLC\""
config *.RoboS*.app[0].typename UdpSourceApp
config *.RoboS1.app[0].display-name S2OuDesc
config *.RoboS2.app[0].display-name S3
config *.RoboS1.app[0].io.destPort 1014
config *.RoboS2.app[0].io.destPort 1022
config *.RoboS*.app[0].source.packetLength 128B
config *.RoboS*.app[0].source.productionInterval 5ms
config *.RoboS*.app[1].typename UdpSinkApp
config *.RoboS*.app[1].display-name fromPLC
config *.RoboS1.app[1].io.localPort 1013
config *.RoboS2.app[1].io.localPort 1021
config *.RoboS*.app[0].source.initialProductionOffset 2.00s
config *.PLC.numApps 13
config *.PLC.hasOutgoingStreams true
config *.PLC.hasIncomingStreams true
config *.PLC.app[0].typename UdpSinkApp
config *.PLC.app[1].typename UdpSinkApp
config *.PLC.app[2].typename UdpSinkApp
config *.PLC.app[3].typename UdpSinkApp
config *.PLC.app[4].typename UdpSinkApp
config *.PLC.app[5].typename UdpSourceApp
config *.PLC.app[6].typename UdpSourceApp
config *.PLC.app[7].typename UdpSourceApp
config *.PLC.app[8].typename UdpSinkApp
config *.PLC.app[9].typename UdpSinkApp
config *.PLC.app[10].typename UdpSinkApp
config *.PLC.app[11].typename UdpSourceApp
config *.PLC.app[12].typename UdpSourceApp
config *.PLC.app[0].display-name fromSensorS1
config *.PLC.app[0].io.localPort 1011
config *.PLC.app[1].display-name fromCameraS1
config *.PLC.app[1].io.localPort 1012
config *.PLC.app[2].display-name fromRoboS1
config *.PLC.app[2].io.localPort 1014
config *.PLC.app[3].display-name fromRoboS2
config *.PLC.app[3].io.localPort 1022
config *.PLC.app[4].display-name fromSensorS3
config *.PLC.app[4].io.localPort 1031
config *.PLC.app[5].display-name ToRoboS1
config *.PLC.app[5].io.destAddress "\"RoboS1\""
config *.PLC.app[5].io.destPort 1013
config *.PLC.app[5].source.packetLength 200B
config *.PLC.app[5].source.productionInterval 5ms
config *.PLC.app[6].display-name ToRoboS2
config *.PLC.app[6].io.destAddress "\"RoboS2\""
config *.PLC.app[6].io.destPort 1021
config *.PLC.app[6].source.packetLength 200B
config *.PLC.app[6].source.productionInterval 5ms
config *.PLC.app[7].display-name ToEsteiraS3
config *.PLC.app[7].io.destAddress "\"EsteiraS3\""
config *.PLC.app[7].io.destPort 1093
config *.PLC.app[7].source.packetLength 50B
config *.PLC.app[7].source.productionInterval 5ms
config *.PLC.app[5].source.initialProductionOffset 2.0s
config *.PLC.app[6].source.initialProductionOffset 2.0s
config *.PLC.app[7].source.initialProductionOffset 2.0s
config *.PLC.app[8].display-name fromEsteiraS1
config *.PLC.app[8].io.localPort 1081
config *.PLC.app[9].display-name fromEsteiraS2
config *.PLC.app[9].io.localPort 1082
config *.PLC.app[10].display-name fromEsteiraS3
config *.PLC.app[10].io.localPort 1083
config *.PLC.app[11].display-name ToEsteiraS1
config *.PLC.app[11].io.destAddress "\"EsteiraS1\""
config *.PLC.app[11].io.destPort 1091
config *.PLC.app[11].source.packetLength 50B
config *.PLC.app[11].source.productionInterval 5ms
config *.PLC.app[12].display-name ToEsteiraS2
config *.PLC.app[12].io.destAddress "\"EsteiraS2\""
config *.PLC.app[12].io.destPort 1092
config *.PLC.app[12].source.packetLength 50B
config *.PLC.app[12].source.productionInterval 5ms
config *.PLC.app[11].source.initialProductionOffset 2.0s
config *.PLC.app[12].source.initialProductionOffset 2.0s
config *.EsteiraS*.numApps 2
config *.EsteiraS*.hasIncomingStreams true
config *.EsteiraS*.app[0].typename UdpSinkApp
config *.EsteiraS*.app[1].typename UdpSourceApp
config *.EsteiraS*.app[0].typename UdpSinkApp
config *.EsteiraS*.app[0].display-name fromPLC
config *.EsteiraS1.app[0].io.localPort 1091
config *.EsteiraS2.app[0].io.localPort 1092
config *.EsteiraS3.app[0].io.localPort 1093
config *.EsteiraS*.app[1].display-name toPLC
config *.EsteiraS*.app[1].io.destAddress "\"PLC\""
config *.EsteiraS1.app[1].io.destPort 1081
config *.EsteiraS2.app[1].io.destPort 1082
config *.EsteiraS3.app[1].io.destPort 1083
config *.EsteiraS*.app[1].source.packetLength 50B
config *.EsteiraS*.app[1].source.productionInterval 5ms
config *.EsteiraS*.app[1].source.initialProductionOffset 2.0s
config network TimeSyncUEUE
config num-rngs 1
config sim-time-limit 50s
config **.TSNAppsTableFile "xmldoc(\"config/app.xml\")"
config *.histogramContainer.histograms "{s1: \"../../../deterministic6g_data/PD-Wireless-5G-1/s1-UL_wall.xml\",\n\t\t\t\t\t\t\t\t\ts24: \"../../../deterministic6g_data/PD-Wireless-5G-1/s24-UL_wall.xml\",\n\t\t\t\t\t\t\t\t\ts3: \"../../../deterministic6g_data/PD-Wireless-5G-1/s3-UL_wall.xml\",\n\t\t\t\t\t\t\t\t\ts4: \"../../../deterministic6g_data/PD-Wireless-5G-1/s4-UL_wall.xml\",\n\t\t\t\t\t\t\t\t\ts6: \"../../../deterministic6g_data/PD-Wireless-5G-1/s6-UL_wall.xml\",\n\t\t\t\t\t\t\t\t\ts7: \"../../../deterministic6g_data/PD-Wireless-5G-1/s7-UL_wall.xml\",\n\t\t\t\t\t\t\t\t\ts8: \"../../../deterministic6g_data/PD-Wireless-5G-1/s8-UL_wall.xml\",\n\t\t\t\t\t\t\t\t\ts9: \"../../../deterministic6g_data/PD-Wireless-5G-1/s9-UL_wall.xml\",\n\t\t\t\t\t\t\t\t\ts10: \"../../../deterministic6g_data/PD-Wireless-5G-1/s10-DL_wall.xml\",\n\t\t\t\t\t\t\t\t\ts19: \"../../../deterministic6g_data/PD-Wireless-5G-1/19M_cut.xml\",\n\t\t\t\t\t\t\t\t\ts20: \"../../../deterministic6g_data/PD-Wireless-5G-1/s20-UL_wall.xml\",\n\t\t\t\t\t\t\t\t\ts25: \"../../../deterministic6g_data/PD-Wireless-5G-1/25M_cut.xml\",\n\t\t\t\t\t\t\t\t\ts26: \"../../../deterministic6g_data/PD-Wireless-5G-1/s26-UL_wall.xml\",\n\t\t\t\t\t\t\t\t\tgPTP: \"../../../deterministic6g_data/PD-Wireless-5G-1/gPTP_cut.xml\"}"
config *.FGS.d*.delayUplink "rngProvider(\"histogramContainer\",\"s1\")"
config *.FGS.n*.delayDownlink "rngProvider(\"histogramContainer\",\"s10\")"
config *.FGS.d*.delayD2D "rngProvider(\"histogramContainer\",\"s1\")"
config *.visualizer.typename IntegratedMultiCanvasVisualizer
config *.visualizer.infoVisualizer[*].displayInfos true

vector 0 TimeSyncUEUE.SwitchS1.eth[0].macLayer.queue queueLength:vector ETV
attr autoWarmupFilter false
attr interpolationmode sample-hold
attr recordingmode vector
attr source "warmup(atomic(constant0(localSignal(packetPushEnded)) + count(localSignal(packetPushStarted)) - count(localSignal(packetPulled)) - count(localSignal(packetRemoved)) - count(localSignal(packetDropped))))"
attr title "queue length"
attr unit pk
vector 1 TimeSyncUEUE.SwitchS1.eth[0].macLayer.queue queueBitLength:vector ETV
attr autoWarmupFilter false
attr interpolationmode sample-hold
attr recordingmode vector
attr source "warmup(atomic(constant0(localSignal(packetPushEnded)) + sum(packetLength(localSignal(packetPushStarted))) - sum(packetLength(localSignal(packetPulled))) - sum(packetLength(localSignal(packetRemoved))) - sum(packetLength(localSignal(packetDropped)))))"
attr title "queue bit length"
attr unit b
vector 2 TimeSyncUEUE.SwitchS1.eth[0].macLayer.queue.queue[0] queueLength:vector ETV
attr autoWarmupFilter false
attr interpolationmode sample-hold
attr recordingmode vector
attr source "warmup(atomic(constant0(packetPushEnded) + count(packetPushStarted) - count(packetPulled) - count(packetRemoved) - count(packetDropped)))"
attr title "queue length"
attr unit pk
vector 3 TimeSyncUEUE.SwitchS1.eth[0].macLayer.queue.queue[0] queueBitLength:vector ETV
attr autoWarmupFilter false
attr interpolationmode sample-hold
attr recordingmode vector
attr source "warmup(atomic(constant0(packetPushEnded) + sum(packetLength(packetPushStarted)) - sum(packetLength(packetPulled)) - sum(packetLength(packetRemoved)) - sum(packetLength(packetDropped))))"
attr title "queue bit length"
attr unit b
vector 4 TimeSyncUEUE.SwitchS1.eth[0].macLayer.queue.queue[1] queueLength:vector ETV
attr autoWarmupFilter false
attr interpolationmode sample-hold
attr recordingmode vector
attr source "warmup(atomic(constant0(packetPushEnded) + count(packetPushStarted) - count(packetPulled) - count(packetRemoved) - count(packetDropped)))"
attr title "queue length"
attr unit pk
vector 5 TimeSyncUEUE.SwitchS1.eth[0].macLayer.queue.queue[1] queueBitLength:vector ETV
attr autoWarmupFilter false
attr interpolationmode sample-hold
attr recordingmode vector
attr source "warmup(atomic(constant0(packetPushEnded) + sum(packetLength(packetPushStarted)) - sum(packetLength(packetPulled)) - sum(packetLength(packetRemoved)) - sum(packetLength(packetDropped))))"
attr title "queue bit length"
attr unit b
vector 6 TimeSyncUEUE.SwitchS1.eth[0].macLayer.queue.queue[2] queueLength:vector ETV
attr autoWarmupFilter false
attr interpolationmode sample-hold
attr recordingmode vector
attr source "warmup(atomic(constant0(packetPushEnded) + count(packetPushStarted) - count(packetPulled) - count(packetRemoved) - count(packetDropped)))"
attr title "queue length"
attr unit pk
vector 7 TimeSyncUEUE.SwitchS1.eth[0].macLayer.queue.queue[2] queueBitLength:vector ETV
attr autoWarmupFilter false
attr interpolationmode sample-hold
attr recordingmode vector
attr source "warmup(atomic(constant0(packetPushEnded) + sum(packetLength(packetPushStarted)) - sum(packetLength(packetPulled)) - sum(packetLength(packetRemoved)) - sum(packetLength(packetDropped))))"
attr title "queue bit length"
attr unit b
vector 8 TimeSyncUEUE.SwitchS1.eth[0].macLayer.queue.queue[3] queueLength:vector ETV
attr autoWarmupFilter false
attr interpolationmode sample-hold
attr recordingmode vector
attr source "warmup(atomic(constant0(packetPushEnded) + count(packetPushStarted) - count(packetPulled) - count(packetRemoved) - count(packetDropped)))"
attr title "queue length"
attr unit pk
vector 9 TimeSyncUEUE.SwitchS1.eth[0].macLayer.queue.queue[3] queueBitLength:vector ETV
attr autoWarmupFilter false
attr interpolationmode sample-hold
attr recordingmode vector
attr source "warmup(atomic(constant0(packetPushEnded) + sum(packetLength(packetPushStarted)) - sum(packetLength(packetPulled)) - sum(packetLength(packetRemoved)) - sum(packetLength(packetDropped))))"
attr title "queue bit length"
attr unit b
vector 10 TimeSyncUEUE.SwitchS1.eth[0].macLayer.queue.queue[4] queueLength:vector ETV
attr autoWarmupFilter false
attr interpolationmode sample-hold
attr recordingmode vector
attr source "warmup(atomic(constant0(packetPushEnded) + count(packetPushStarted) - count(packetPulled) - count(packetRemoved) - count(packetDropped)))"
attr title "queue length"
attr unit pk
vector 11 TimeSyncUEUE.SwitchS1.eth[0].macLayer.queue.queue[4] queueBitLength:vector ETV
attr autoWarmupFilter false
attr interpolationmode sample-hold
attr recordingmode vector
attr source "warmup(atomic(constant0(packetPushEnded) + sum(packetLength(packetPushStarted)) - sum(packetLength(packetPulled)) - sum(packetLength(packetRemoved)) - sum(packetLength(packetDropped))))"
attr title "queue bit length"
attr unit b
vector 12 TimeSyncUEUE.SwitchS1.eth[0].macLayer.queue.queue[5] queueLength:vector ETV
attr autoWarmupFilter false
attr interpolationmode sample-hold
attr recordingmode vector
attr source "warmup(atomic(constant0(packetPushEnded) + count(packetPushStarted) - count(packetPulled) - count(packetRemoved) - count(packetDropped)))"
attr title "queue length"
attr unit pk
vector 13 TimeSyncUEUE.SwitchS1.eth[0].macLayer.queue.queue[5] queueBitLength:vector ETV
attr autoWarmupFilter false
attr interpolationmode sample-hold
attr recordingmode vector
attr source "warmup(atomic(constant0(packetPushEnded) + sum(packetLength(packetPushStarted)) - sum(packetLength(packetPulled)) - sum(packetLength(packetRemoved)) - sum(packetLength(packetDropped))))"
attr title "queue bit length"
attr unit b
vector 14 TimeSyncUEUE.SwitchS1.eth[0].macLayer.queue.queue[6] queueLength:vector ETV
attr autoWarmupFilter false
attr interpolationmode sample-hold
attr recordingmode vector
attr source "warmup(atomic(constant0(packetPushEnded) + count(packetPushStarted) - count(packetPulled) - count(packetRemoved) - count(packetDropped)))"
attr title "queue length"
attr unit pk
vector 15 TimeSyncUEUE.SwitchS1.eth[0].macLayer.queue.queue[6] queueBitLength:vector ETV
attr autoWarmupFilter false
attr interpolationmode sample-hold
attr recordingmode vector
attr source "warmup(atomic(constant0(packetPushEnded) + sum(packetLength(packetPushStarted)) - sum(packetLength(packetPulled)) - sum(packetLength(packetRemoved)) - sum(packetLength(packetDropped))))"
attr title "queue bit length"
attr unit b
vector 16 TimeSyncUEUE.SwitchS1.eth[0].macLayer.queue.queue[7] queueLength:vector ETV
attr autoWarmupFilter false
attr interpolationmode sample-hold
attr recordingmode vector
attr source "warmup(atomic(constant0(packetPushEnded) + count(packetPushStarted) - count(packetPulled) - count(packetRemoved) - count(packetDropped)))"
attr title "queue length"
attr unit pk
vector 17 TimeSyncUEUE.SwitchS1.eth[0].macLayer.queue.queue[7] queueBitLength:vector ETV
attr autoWarmupFilter false
attr interpolationmode sample-hold
attr recordingmode vector
attr source "warmup(atomic(constant0(packetPushEnded) + sum(packetLength(packetPushStarted)) - sum(packetLength(packetPulled)) - sum(packetLength(packetRemoved)) - sum(packetLength(packetDropped))))"
attr title "queue bit length"
attr unit b
vector 18 TimeSyncUEUE.SwitchS1.eth[0].phyLayer.interFrameGapInserter interpacketGap:vector ETV
attr interpolationmode sample-hold
attr recordingmode vector
attr source "count(interpacketGapStarted) - count(interpacketGapEnded)"
attr title "interpacket gap state"
attr type int
vector 19 TimeSyncUEUE.SwitchS1.eth[0].phyLayer.transmitter transmitting:vector ETV
attr interpolationmode sample-hold
attr recordingmode vector
attr source "count(transmissionStarted) - count(transmissionEnded)"
attr title "transmitting state"
attr type int
vector 20 TimeSyncUEUE.SwitchS1.eth[1].macLayer.queue queueLength:vector ETV
attr autoWarmupFilter false
attr interpolationmode sample-hold
attr recordingmode vector
attr source "warmup(atomic(constant0(localSignal(packetPushEnded)) + count(localSignal(packetPushStarted)) - count(localSignal(packetPulled)) - count(localSignal(packetRemoved)) - count(localSignal(packetDropped))))"
attr title "queue length"
attr unit pk
vector 21 TimeSyncUEUE.SwitchS1.eth[1].macLayer.queue queueBitLength:vector ETV
attr autoWarmupFilter false
attr interpolationmode sample-hold
attr recordingmode vector
attr source "warmup(atomic(constant0(localSignal(packetPushEnded)) + sum(packetLength(localSignal(packetPushStarted))) - sum(packetLength(localSignal(packetPulled))) - sum(packetLength(localSignal(packetRemoved))) - sum(packetLength(localSignal(packetDropped)))))"
attr title "queue bit length"
attr unit b
vector 22 TimeSyncUEUE.SwitchS1.eth[1].macLayer.queue.queue[0] queueLength:vector ETV
attr autoWarmupFilter false
attr interpolationmode sample-hold
attr recordingmode vector
attr source "warmup(atomic(constant0(packetPushEnded) + count(packetPushStarted) - count(packetPulled) - count(packetRemoved) - count(packetDropped)))"
attr title "queue length"
attr unit pk
vector 23 TimeSyncUEUE.SwitchS1.eth[1].macLayer.queue.queue[0] queueBitLength:vector ETV
attr autoWarmupFilter false
attr interpolationmode sample-hold
attr recordingmode vector
attr source "warmup(atomic(constant0(packetPushEnded) + sum(packetLength(packetPushStarted)) - sum(packetLength(packetPulled)) - sum(packetLength(packetRemoved)) - sum(packetLength(packetDropped))))"
attr title "queue bit length"
attr unit b
vector 24 TimeSyncUEUE.SwitchS1.eth[1].macLayer.queue.queue[1] queueLength:vector ETV
attr autoWarmupFilter false
attr interpolationmode sample-hold
attr recordingmode vector
attr source "warmup(atomic(constant0(packetPushEnded) + count(packetPushStarted) - count(packetPulled) - count(packetRemoved) - count(packetDropped)))"
attr title "queue length"
attr unit pk
vector 25 TimeSyncUEUE.SwitchS1.eth[1].macLayer.queue.queue[1] queueBitLength:vector ETV
attr autoWarmupFilter false
attr interpolationmode sample-hold
attr recordingmode vector
attr source "warmup(atomic(constant0(packetPushEnded) + sum(packetLength(packetPushStarted)) - sum(packetLength(packetPulled)) - sum(packetLength(packetRemoved)) - sum(packetLength(packetDropped))))"
attr title "queue bit length"
attr unit b
vector 26 TimeSyncUEUE.SwitchS1.eth[1].macLayer.queue.queue[2] queueLength:vector ETV
attr autoWarmupFilter false
attr interpolationmode sample-hold
attr recordingmode vector
attr source "warmup(atomic(constant0(packetPushEnded) + count(packetPushStarted) - count(packetPulled) - count(packetRemoved) - count(packetDropped)))"
attr title "queue length"
attr unit pk
vector 27 TimeSyncUEUE.SwitchS1.eth[1].macLayer.queue.queue[2] queueBitLength:vector ETV
attr autoWarmupFilter false
attr interpolationmode sample-hold
attr recordingmode vector
attr source "warmup(atomic(constant0(packetPushEnded) + sum(packetLength(packetPushStarted)) - sum(packetLength(packetPulled)) - sum(packetLength(packetRemoved)) - sum(packetLength(packetDropped))))"
attr title "queue bit length"
attr unit b
vector 28 TimeSyncUEUE.SwitchS1.eth[1].macLayer.queue.queue[3] queueLength:vector ETV
attr autoWarmupFilter false
attr interpolationmode sample-hold
attr recordingmode vector
attr source "warmup(atomic(constant0(packetPushEnded) + count(packetPushStarted) - count(packetPulled) - count(packetRemoved) - count(packetDropped)))"
attr title "queue length"
attr unit pk
vector 29 TimeSyncUEUE.SwitchS1.eth[1].macLayer.queue.queue[3] queueBitLength:vector ETV
attr autoWarmupFilter false
attr interpolationmode sample-hold
attr recordingmode vector
attr source "warmup(atomic(constant0(packetPushEnded) + sum(packetLength(packetPushStarted)) - sum(packetLength(packetPulled)) - sum(packetLength(packetRemoved)) - sum(packetLength(packetDropped))))"
attr title "queue bit length"
attr unit b
vector 30 TimeSyncUEUE.SwitchS1.eth[1].macLayer.queue.queue[4] queueLength:vector ETV
attr autoWarmupFilter false
attr interpolationmode sample-hold
attr recordingmode vector
attr source "warmup(atomic(constant0(packetPushEnded) + count(packetPushStarted) - count(packetPulled) - count(packetRemoved) - count(packetDropped)))"
attr title "queue length"
attr unit pk
vector 31 TimeSyncUEUE.SwitchS1.eth[1].macLayer.queue.queue[4] queueBitLength:vector ETV
attr autoWarmupFilter false
attr interpolationmode sample-hold
attr recordingmode vector
attr source "warmup(atomic(constant0(packetPushEnded) + sum(packetLength(packetPushStarted)) - sum(packetLength(packetPulled)) - sum(packetLength(packetRemoved)) - sum(packetLength(packetDropped))))"
attr title "queue bit length"
attr unit b
vector 32 TimeSyncUEUE.SwitchS1.eth[1].macLayer.queue.queue[5] queueLength:vector ETV
attr autoWarmupFilter false
attr interpolationmode sample-hold
attr recordingmode vector
attr source "warmup(atomic(constant0(packetPushEnded) + count(packetPushStarted) - count(packetPulled) - count(packetRemoved) - count(packetDropped)))"
attr title "queue length"
attr unit pk
vector 33 TimeSyncUEUE.SwitchS1.eth[1].macLayer.queue.queue[5] queueBitLength:vector ETV
attr autoWarmupFilter false
attr interpolationmode sample-hold
attr recordingmode vector
attr source "warmup(atomic(constant0(packetPushEnded) + sum(packetLength(packetPushStarted)) - sum(packetLength(packetPulled)) - sum(packetLength(packetRemoved)) - sum(packetLength(packetDropped))))"
attr title "queue bit length"
attr unit b
vector 34 TimeSyncUEUE.SwitchS1.eth[1].macLayer.queue.queue[6] queueLength:vector ETV
attr autoWarmupFilter false
attr interpolationmode sample-hold
attr recordingmode vector
attr source "warmup(atomic(constant0(packetPushEnded) + count(packetPushStarted) - count(packetPulled) - count(packetRemoved) - count(packetDropped)))"
attr title "queue length"
attr unit pk
vector 35 TimeSyncUEUE.SwitchS1.eth[1].macLayer.queue.queue[6] queueBitLength:vector ETV
attr autoWarmupFilter false
attr interpolationmode sample-hold
attr recordingmode vector
attr source "warmup(atomic(constant0(packetPushEnded) + sum(packetLength(packetPushStarted)) - sum(packetLength(packetPulled)) - sum(packetLength(packetRemoved)) - sum(packetLength(packetDropped))))"
attr title "queue bit length"
attr unit b
vector 36 TimeSyncUEUE.SwitchS1.eth[1].macLayer.queue.queue[7] queueLength:vector ETV
attr autoWarmupFilter false
attr interpolationmode sample-hold
attr recordingmode vector
attr source "warmup(atomic(constant0(packetPushEnded) + count(packetPushStarted) - count(packetPulled) - count(packetRemoved) - count(packetDropped)))"
attr title "queue length"
attr unit pk
vector 37 TimeSyncUEUE.SwitchS1.eth[1].macLayer.queue.queue[7] queueBitLength:vector ETV
attr autoWarmupFilter false
attr interpolationmode sample-hold
attr recordingmode vector
attr source "warmup(atomic(constant0(packetPushEnded) + sum(packetLength(packetPushStarted)) - sum(packetLength(packetPulled)) - sum(packetLength(packetRemoved)) - sum(packetLength(packetDropped))))"
attr title "queue bit length"
attr unit b
vector 38 TimeSyncUEUE.SwitchS1.eth[1].phyLayer.interFrameGapInserter interpacketGap:vector ETV
attr interpolationmode sample-hold
attr recordingmode vector
attr source "count(interpacketGapStarted) - count(interpacketGapEnded)"
attr title "interpacket gap state"
attr type int
vector 39 TimeSyncUEUE.SwitchS1.eth[1].phyLayer.transmitter transmitting:vector ETV
attr interpolationmode sample-hold
attr recordingmode vector
attr source "count(transmissionStarted) - count(transmissionEnded)"
attr title "transmitting state"
attr type int
vector 40 TimeSyncUEUE.SwitchS1.eth[2].macLayer.queue queueLength:vector ETV
attr autoWarmupFilter false
attr interpolationmode sample-hold
attr recordingmode vector
attr source "warmup(atomic(constant0(localSignal(packetPushEnded)) + count(localSignal(packetPushStarted)) - count(localSignal(packetPulled)) - count(localSignal(packetRemoved)) - count(localSignal(packetDropped))))"
attr title "queue length"
attr unit pk
vector 41 TimeSyncUEUE.SwitchS1.eth[2].macLayer.queue queueBitLength:vector ETV
attr autoWarmupFilter false
attr interpolationmode sample-hold
attr recordingmode vector
attr source "warmup(atomic(constant0(localSignal(packetPushEnded)) + sum(packetLength(localSignal(packetPushStarted))) - sum(packetLength(localSignal(packetPulled))) - sum(packetLength(localSignal(packetRemoved))) - sum(packetLength(localSignal(packetDropped)))))"
attr title "queue bit length"
attr unit b
vector 42 TimeSyncUEUE.SwitchS1.eth[2].macLayer.queue.queue[0] queueLength:vector ETV
attr autoWarmupFilter false
attr interpolationmode sample-hold
attr recordingmode vector
attr source "warmup(atomic(constant0(packetPushEnded) + count(packetPushStarted) - count(packetPulled) - count(packetRemoved) - count(packetDropped)))"
attr title "queue length"
attr unit pk
vector 43 TimeSyncUEUE.SwitchS1.eth[2].macLayer.queue.queue[0] queueBitLength:vector ETV
attr autoWarmupFilter false
attr interpolationmode sample-hold
attr recordingmode vector
attr source "warmup(atomic(constant0(packetPushEnded) + sum(packetLength(packetPushStarted)) - sum(packetLength(packetPulled)) - sum(packetLength(packetRemoved)) - sum(packetLength(packetDropped))))"
attr title "queue bit length"
attr unit b
vector 44 TimeSyncUEUE.SwitchS1.eth[2].macLayer.queue.queue[1] queueLength:vector ETV
attr autoWarmupFilter false
attr interpolationmode sample-hold
attr recordingmode vector
attr source "warmup(atomic(constant0(packetPushEnded) + count(packetPushStarted) - count(packetPulled) - count(packetRemoved) - count(packetDropped)))"
attr title "queue length"
attr unit pk
vector 45 TimeSyncUEUE.SwitchS1.eth[2].macLayer.queue.queue[1] queueBitLength:vector ETV
attr autoWarmupFilter false
attr interpolationmode sample-hold
attr recordingmode vector
attr source "warmup(atomic(constant0(packetPushEnded) + sum(packetLength(packetPushStarted)) - sum(packetLength(packetPulled)) - sum(packetLength(packetRemoved)) - sum(packetLength(packetDropped))))"
attr title "queue bit length"
attr unit b
vector 46 TimeSyncUEUE.SwitchS1.eth[2].macLayer.queue.queue[2] queueLength:vector ETV
attr autoWarmupFilter false
attr interpolationmode sample-hold
attr recordingmode vector
attr source "warmup(atomic(constant0(packetPushEnded) + count(packetPushStarted) - count(packetPulled) - count(packetRemoved) - count(packetDropped)))"
attr title "queue length"
attr unit pk
vector 47 TimeSyncUEUE.SwitchS1.eth[2].macLayer.queue.queue[2] queueBitLength:vector ETV
attr autoWarmupFilter false
attr interpolationmode sample-hold
attr recordingmode vector
attr source "warmup(atomic(constant0(packetPushEnded) + sum(packetLength(packetPushStarted)) - sum(packetLength(packetPulled)) - sum(packetLength(packetRemoved)) - sum(packetLength(packetDropped))))"
attr title "queue bit length"
attr unit b
vector 48 TimeSyncUEUE.SwitchS1.eth[2].macLayer.queue.queue[3] queueLength:vector ETV
attr autoWarmupFilter false
attr interpolationmode sample-hold
attr recordingmode vector
attr source "warmup(atomic(constant0(packetPushEnded) + count(packetPushStarted) - count(packetPulled) - count(packetRemoved) - count(packetDropped)))"
attr title "queue length"
attr unit pk
vector 49 TimeSyncUEUE.SwitchS1.eth[2].macLayer.queue.queue[3] queueBitLength:vector ETV
attr autoWarmupFilter false
attr interpolationmode sample-hold
attr recordingmode vector
attr source "warmup(atomic(constant0(packetPushEnded) + sum(packetLength(packetPushStarted)) - sum(packetLength(packetPulled)) - sum(packetLength(packetRemoved)) - sum(packetLength(packetDropped))))"
attr title "queue bit length"
attr unit b
vector 50 TimeSyncUEUE.SwitchS1.eth[2].macLayer.queue.queue[4] queueLength:vector ETV
attr autoWarmupFilter false
attr interpolationmode sample-hold
attr recordingmode vector
attr source "warmup(atomic(constant0(packetPushEnded) + count(packetPushStarted) - count(packetPulled) - count(packetRemoved) - count(packetDropped)))"
attr title "queue length"
attr unit pk
vector 51 TimeSyncUEUE.SwitchS1.eth[2].macLayer.queue.queue[4] queueBitLength:vector ETV
attr autoWarmupFilter false
attr interpolationmode sample-hold
attr recordingmode vector
attr source "warmup(atomic(constant0(packetPushEnded) + sum(packetLength(packetPushStarted)) - sum(packetLength(packetPulled)) - sum(packetLength(packetRemoved)) - sum(packetLength(packetDropped))))"
attr title "queue bit length"
attr unit b
vector 52 TimeSyncUEUE.SwitchS1.eth[2].macLayer.queue.queue[5] queueLength:vector ETV
attr autoWarmupFilter false
attr interpolationmode sample-hold
attr recordingmode vector
attr source "warmup(atomic(constant0(packetPushEnded) + count(packetPushStarted) - count(packetPulled) - count(packetRemoved) - count(packetDropped)))"
attr title "queue length"
attr unit pk
vector 53 TimeSyncUEUE.SwitchS1.eth[2].macLayer.queue.queue[5] queueBitLength:vector ETV
attr autoWarmupFilter false
attr interpolationmode sample-hold
attr recordingmode vector
attr source "warmup(atomic(constant0(packetPushEnded) + sum(packetLength(packetPushStarted)) - sum(packetLength(packetPulled)) - sum(packetLength(packetRemoved)) - sum(packetLength(packetDropped))))"
attr title "queue bit length"
attr unit b
vector 54 TimeSyncUEUE.SwitchS1.eth[2].macLayer.queue.queue[6] queueLength:vector ETV
attr autoWarmupFilter false
attr interpolationmode sample-hold
attr recordingmode vector
attr source "warmup(atomic(constant0(packetPushEnded) + count(packetPushStarted) - count(packetPulled) - count(packetRemoved) - count(packetDropped)))"
attr title "queue length"
attr unit pk
vector 55 TimeSyncUEUE.SwitchS1.eth[2].macLayer.queue.queue[6] queueBitLength:vector ETV
attr autoWarmupFilter false
attr interpolationmode sample-hold
attr recordingmode vector
attr source "warmup(atomic(constant0(packetPushEnded) + sum(packetLength(packetPushStarted)) - sum(packetLength(packetPulled)) - sum(packetLength(packetRemoved)) - sum(packetLength(packetDropped))))"
attr title "queue bit length"
attr unit b
vector 56 TimeSyncUEUE.SwitchS1.eth[2].macLayer.queue.queue[7] queueLength:vector ETV
attr autoWarmupFilter false
attr interpolationmode sample-hold
attr recordingmode vector
attr source "warmup(atomic(constant0(packetPushEnded) + count(packetPushStarted) - count(packetPulled) - count(packetRemoved) - count(packetDropped)))"
attr title "queue length"
attr unit pk
vector 57 TimeSyncUEUE.SwitchS1.eth[2].macLayer.queue.queue[7] queueBitLength:vector ETV
attr autoWarmupFilter false
attr interpolationmode sample-hold
attr recordingmode vector
attr source "warmup(atomic(constant0(packetPushEnded) + sum(packetLength(packetPushStarted)) - sum(packetLength(packetPulled)) - sum(packetLength(packetRemoved)) - sum(packetLength(packetDropped))))"
attr title "queue bit length"
attr unit b
vector 58 TimeSyncUEUE.SwitchS1.eth[2].phyLayer.interFrameGapInserter interpacketGap:vector ETV
attr interpolationmode sample-hold
attr recordingmode vector
attr source "count(interpacketGapStarted) - count(interpacketGapEnded)"
attr title "interpacket gap state"
attr type int
vector 59 TimeSyncUEUE.SwitchS1.eth[2].phyLayer.transmitter transmitting:vector ETV
attr interpolationmode sample-hold
attr recordingmode vector
attr source "count(transmissionStarted) - count(transmissionEnded)"
attr title "transmitting state"
attr type int
vector 60 TimeSyncUEUE.SwitchS1.eth[3].macLayer.queue queueLength:vector ETV
attr autoWarmupFilter false
attr interpolationmode sample-hold
attr recordingmode vector
attr source "warmup(atomic(constant0(localSignal(packetPushEnded)) + count(localSignal(packetPushStarted)) - count(localSignal(packetPulled)) - count(localSignal(packetRemoved)) - count(localSignal(packetDropped))))"
attr title "queue length"
attr unit pk
vector 61 TimeSyncUEUE.SwitchS1.eth[3].macLayer.queue queueBitLength:vector ETV
attr autoWarmupFilter false
attr interpolationmode sample-hold
attr recordingmode vector
attr source "warmup(atomic(constant0(localSignal(packetPushEnded)) + sum(packetLength(localSignal(packetPushStarted))) - sum(packetLength(localSignal(packetPulled))) - sum(packetLength(localSignal(packetRemoved))) - sum(packetLength(localSignal(packetDropped)))))"
attr title "queue bit length"
attr unit b
vector 62 TimeSyncUEUE.SwitchS1.eth[3].macLayer.queue.queue[0] queueLength:vector ETV
attr autoWarmupFilter false
attr interpolationmode sample-hold
attr recordingmode vector
attr source "warmup(atomic(constant0(packetPushEnded) + count(packetPushStarted) - count(packetPulled) - count(packetRemoved) - count(packetDropped)))"
attr title "queue length"
attr unit pk
vector 63 TimeSyncUEUE.SwitchS1.eth[3].macLayer.queue.queue[0] queueBitLength:vector ETV
attr autoWarmupFilter false
attr interpolationmode sample-hold
attr recordingmode vector
attr source "warmup(atomic(constant0(packetPushEnded) + sum(packetLength(packetPushStarted)) - sum(packetLength(packetPulled)) - sum(packetLength(packetRemoved)) - sum(packetLength(packetDropped))))"
attr title "queue bit length"
attr unit b
vector 64 TimeSyncUEUE.SwitchS1.eth[3].macLayer.queue.queue[1] queueLength:vector ETV
attr autoWarmupFilter false
attr interpolationmode sample-hold
attr recordingmode vector
attr source "warmup(atomic(constant0(packetPushEnded) + count(packetPushStarted) - count(packetPulled) - count(packetRemoved) - count(packetDropped)))"
attr title "queue length"
attr unit pk
vector 65 TimeSyncUEUE.SwitchS1.eth[3].macLayer.queue.queue[1] queueBitLength:vector ETV
attr autoWarmupFilter false
attr interpolationmode sample-hold
attr recordingmode vector
attr source "warmup(atomic(constant0(packetPushEnded) + sum(packetLength(packetPushStarted)) - sum(packetLength(packetPulled)) - sum(packetLength(packetRemoved)) - sum(packetLength(packetDropped))))"
attr title "queue bit length"
attr unit b
vector 66 TimeSyncUEUE.SwitchS1.eth[3].macLayer.queue.queue[2] queueLength:vector ETV
attr autoWarmupFilter false
attr interpolationmode sample-hold
attr recordingmode vector
attr source "warmup(atomic(constant0(packetPushEnded) + count(packetPushStarted) - count(packetPulled) - count(packetRemoved) - count(packetDropped)))"
attr title "queue length"
attr unit pk
vector 67 TimeSyncUEUE.SwitchS1.eth[3].macLayer.queue.queue[2] queueBitLength:vector ETV
attr autoWarmupFilter false
attr interpolationmode sample-hold
attr recordingmode vector
attr source "warmup(atomic(constant0(packetPushEnded) + sum(packetLength(packetPushStarted)) - sum(packetLength(packetPulled)) - sum(packetLength(packetRemoved)) - sum(packetLength(packetDropped))))"
attr title "queue bit length"
attr unit b
vector 68 TimeSyncUEUE.SwitchS1.eth[3].macLayer.queue.queue[3] queueLength:vector ETV
attr autoWarmupFilter false
attr interpolationmode sample-hold
attr recordingmode vector
attr source "warmup(atomic(constant0(packetPushEnded) + count(packetPushStarted) - count(packetPulled) - count(packetRemoved) - count(packetDropped)))"
attr title "queue length"
attr unit pk
vector 69 TimeSyncUEUE.SwitchS1.eth[3].macLayer.queue.queue[3] queueBitLength:vector ETV
attr autoWarmupFilter false
attr interpolationmode sample-hold
attr recordingmode vector
attr source "warmup(atomic(constant0(packetPushEnded) + sum(packetLength(packetPushStarted)) - sum(packetLength(packetPulled)) - sum(packetLength(packetRemoved)) - sum(packetLength(packetDropped))))"
attr title "queue bit length"
attr unit b
vector 70 TimeSyncUEUE.SwitchS1.eth[3].macLayer.queue.queue[4] queueLength:vector ETV
attr autoWarmupFilter false
attr interpolationmode sample-hold
attr recordingmode vector
attr source "warmup(atomic(constant0(packetPushEnded) + count(packetPushStarted) - count(packetPulled) - count(packetRemoved) - count(packetDropped)))"
attr title "queue length"
attr unit pk
vector 71 TimeSyncUEUE.SwitchS1.eth[3].macLayer.queue.queue[4] queueBitLength:vector ETV
attr autoWarmupFilter false
attr interpolationmode sample-hold
attr recordingmode vector
attr source "warmup(atomic(constant0(packetPushEnded) + sum(packetLength(packetPushStarted)) - sum(packetLength(packetPulled)) - sum(packetLength(packetRemoved)) - sum(packetLength(packetDropped))))"
attr title "queue bit length"
attr unit b
vector 72 TimeSyncUEUE.SwitchS1.eth[3].macLayer.queue.queue[5] queueLength:vector ETV
attr autoWarmupFilter false
attr interpolationmode sample-hold
attr recordingmode vector
attr source "warmup(atomic(constant0(packetPushEnded) + count(packetPushStarted) - count(packetPulled) - count(packetRemoved) - count(packetDropped)))"
attr title "queue length"
attr unit pk
vector 73 TimeSyncUEUE.SwitchS1.eth[3].macLayer.queue.queue[5] queueBitLength:vector ETV
attr autoWarmupFilter false
attr interpolationmode sample-hold
attr recordingmode vector
attr source "warmup(atomic(constant0(packetPushEnded) + sum(packetLength(packetPushStarted)) - sum(packetLength(packetPulled)) - sum(packetLength(packetRemoved)) - sum(packetLength(packetDropped))))"
attr title "queue bit length"
attr unit b
vector 74 TimeSyncUEUE.SwitchS1.eth[3].macLayer.queue.queue[6] queueLength:vector ETV
attr autoWarmupFilter false
attr interpolationmode sample-hold
attr recordingmode vector
attr source "warmup(atomic(constant0(packetPushEnded) + count(packetPushStarted) - count(packetPulled) - count(packetRemoved) - count(packetDropped)))"
attr title "queue length"
attr unit pk
vector 75 TimeSyncUEUE.SwitchS1.eth[3].macLayer.queue.queue[6] queueBitLength:vector ETV
attr autoWarmupFilter false
attr interpolationmode sample-hold
attr recordingmode vector
attr source "warmup(atomic(constant0(packetPushEnded) + sum(packetLength(packetPushStarted)) - sum(packetLength(packetPulled)) - sum(packetLength(packetRemoved)) - sum(packetLength(packetDropped))))"
attr title "queue bit length"
attr unit b
vector 76 TimeSyncUEUE.SwitchS1.eth[3].macLayer.queue.queue[7] queueLength:vector ETV
attr autoWarmupFilter false
attr interpolationmode sample-hold
attr recordingmode vector
attr source "warmup(atomic(constant0(packetPushEnded) + count(packetPushStarted) - count(packetPulled) - count(packetRemoved) - count(packetDropped)))"
attr title "queue length"
attr unit pk
vector 77 TimeSyncUEUE.SwitchS1.eth[3].macLayer.queue.queue[7] queueBitLength:vector ETV
attr autoWarmupFilter false
attr interpolationmode sample-hold
attr recordingmode vector
attr source "warmup(atomic(constant0(packetPushEnded) + sum(packetLength(packetPushStarted)) - sum(packetLength(packetPulled)) - sum(packetLength(packetRemoved)) - sum(packetLength(packetDropped))))"
attr title "queue bit length"
attr unit b
vector 78 TimeSyncUEUE.SwitchS1.eth[3].phyLayer.interFrameGapInserter interpacketGap:vector ETV
attr interpolationmode sample-hold
attr recordingmode vector
attr source "count(interpacketGapStarted) - count(interpacketGapEnded)"
attr title "interpacket gap state"
attr type int
vector 79 TimeSyncUEUE.SwitchS1.eth[3].phyLayer.transmitter transmitting:vector ETV
attr interpolationmode sample-hold
attr recordingmode vector
attr source "count(transmissionStarted) - count(transmissionEnded)"
attr title "transmitting state"
attr type int
vector 80 TimeSyncUEUE.SwitchS1.eth[4].macLayer.queue queueLength:vector ETV
attr autoWarmupFilter false
attr interpolationmode sample-hold
attr recordingmode vector
attr source "warmup(atomic(constant0(localSignal(packetPushEnded)) + count(localSignal(packetPushStarted)) - count(localSignal(packetPulled)) - count(localSignal(packetRemoved)) - count(localSignal(packetDropped))))"
attr title "queue length"
attr unit pk
vector 81 TimeSyncUEUE.SwitchS1.eth[4].macLayer.queue queueBitLength:vector ETV
attr autoWarmupFilter false
attr interpolationmode sample-hold
attr recordingmode vector
attr source "warmup(atomic(constant0(localSignal(packetPushEnded)) + sum(packetLength(localSignal(packetPushStarted))) - sum(packetLength(localSignal(packetPulled))) - sum(packetLength(localSignal(packetRemoved))) - sum(packetLength(localSignal(packetDropped)))))"
attr title "queue bit length"
attr unit b
vector 82 TimeSyncUEUE.SwitchS1.eth[4].macLayer.queue.queue[0] queueLength:vector ETV
attr autoWarmupFilter false
attr interpolationmode sample-hold
attr recordingmode vector
attr source "warmup(atomic(constant0(packetPushEnded) + count(packetPushStarted) - count(packetPulled) - count(packetRemoved) - count(packetDropped)))"
attr title "queue length"
attr unit pk
vector 83 TimeSyncUEUE.SwitchS1.eth[4].macLayer.queue.queue[0] queueBitLength:vector ETV
attr autoWarmupFilter false
attr interpolationmode sample-hold
attr recordingmode vector
attr source "warmup(atomic(constant0(packetPushEnded) + sum(packetLength(packetPushStarted)) - sum(packetLength(packetPulled)) - sum(packetLength(packetRemoved)) - sum(packetLength(packetDropped))))"
attr title "queue bit length"
attr unit b
vector 84 TimeSyncUEUE.SwitchS1.eth[4].macLayer.queue.queue[1] queueLength:vector ETV
attr autoWarmupFilter false
attr interpolationmode sample-hold
attr recordingmode vector
attr source "warmup(atomic(constant0(packetPushEnded) + count(packetPushStarted) - count(packetPulled) - count(packetRemoved) - count(packetDropped)))"
attr title "queue length"
attr unit pk
vector 85 TimeSyncUEUE.SwitchS1.eth[4].macLayer.queue.queue[1] queueBitLength:vector ETV
attr autoWarmupFilter false
attr interpolationmode sample-hold
attr recordingmode vector
attr source "warmup(atomic(constant0(packetPushEnded) + sum(packetLength(packetPushStarted)) - sum(packetLength(packetPulled)) - sum(packetLength(packetRemoved)) - sum(packetLength(packetDropped))))"
attr title "queue bit length"
attr unit b
vector 86 TimeSyncUEUE.SwitchS1.eth[4].macLayer.queue.queue[2] queueLength:vector ETV
attr autoWarmupFilter false
attr interpolationmode sample-hold
attr recordingmode vector
attr source "warmup(atomic(constant0(packetPushEnded) + count(packetPushStarted) - count(packetPulled) - count(packetRemoved) - count(packetDropped)))"
attr title "queue length"
attr unit pk
vector 87 TimeSyncUEUE.SwitchS1.eth[4].macLayer.queue.queue[2] queueBitLength:vector ETV
attr autoWarmupFilter false
attr interpolationmode sample-hold
attr recordingmode vector
attr source "warmup(atomic(constant0(packetPushEnded) + sum(packetLength(packetPushStarted)) - sum(packetLength(packetPulled)) - sum(packetLength(packetRemoved)) - sum(packetLength(packetDropped))))"
attr title "queue bit length"
attr unit b
vector 88 TimeSyncUEUE.SwitchS1.eth[4].macLayer.queue.queue[3] queueLength:vector ETV
attr autoWarmupFilter false
attr interpolationmode sample-hold
attr recordingmode vector
attr source "warmup(atomic(constant0(packetPushEnded) + count(packetPushStarted) - count(packetPulled) - count(packetRemoved) - count(packetDropped)))"
attr title "queue length"
attr unit pk
vector 89 TimeSyncUEUE.SwitchS1.eth[4].macLayer.queue.queue[3] queueBitLength:vector ETV
attr autoWarmupFilter false
attr interpolationmode sample-hold
attr recordingmode vector
attr source "warmup(atomic(constant0(packetPushEnded) + sum(packetLength(packetPushStarted)) - sum(packetLength(packetPulled)) - sum(packetLength(packetRemoved)) - sum(packetLength(packetDropped))))"
attr title "queue bit length"
attr unit b
vector 90 TimeSyncUEUE.SwitchS1.eth[4].macLayer.queue.queue[4] queueLength:vector ETV
attr autoWarmupFilter false
attr interpolationmode sample-hold
attr recordingmode vector
attr source "warmup(atomic(constant0(packetPushEnded) + count(packetPushStarted) - count(packetPulled) - count(packetRemoved) - count(packetDropped)))"
attr title "queue length"
attr unit pk
vector 91 TimeSyncUEUE.SwitchS1.eth[4].macLayer.queue.queue[4] queueBitLength:vector ETV
attr autoWarmupFilter false
attr interpolationmode sample-hold
attr recordingmode vector
attr source "warmup(atomic(constant0(packetPushEnded) + sum(packetLength(packetPushStarted)) - sum(packetLength(packetPulled)) - sum(packetLength(packetRemoved)) - sum(packetLength(packetDropped))))"
attr title "queue bit length"
attr unit b
vector 92 TimeSyncUEUE.SwitchS1.eth[4].macLayer.queue.queue[5] queueLength:vector ETV
attr autoWarmupFilter false
attr interpolationmode sample-hold
attr recordingmode vector
attr source "warmup(atomic(constant0(packetPushEnded) + count(packetPushStarted) - count(packetPulled) - count(packetRemoved) - count(packetDropped)))"
attr title "queue length"
attr unit pk
vector 93 TimeSyncUEUE.SwitchS1.eth[4].macLayer.queue.queue[5] queueBitLength:vector ETV
attr autoWarmupFilter false
attr interpolationmode sample-hold
attr recordingmode vector
attr source "warmup(atomic(constant0(packetPushEnded) + sum(packetLength(packetPushStarted)) - sum(packetLength(packetPulled)) - sum(packetLength(packetRemoved)) - sum(packetLength(packetDropped))))"
attr title "queue bit length"
attr unit b
vector 94 TimeSyncUEUE.SwitchS1.eth[4].macLayer.queue.queue[6] queueLength:vector ETV
attr autoWarmupFilter false
attr interpolationmode sample-hold
attr recordingmode vector
attr source "warmup(atomic(constant0(packetPushEnded) + count(packetPushStarted) - count(packetPulled) - count(packetRemoved) - count(packetDropped)))"
attr title "queue length"
attr unit pk
vector 95 TimeSyncUEUE.SwitchS1.eth[4].macLayer.queue.queue[6] queueBitLength:vector ETV
attr autoWarmupFilter false
attr interpolationmode sample-hold
attr recordingmode vector
attr source "warmup(atomic(constant0(packetPushEnded) + sum(packetLength(packetPushStarted)) - sum(packetLength(packetPulled)) - sum(packetLength(packetRemoved)) - sum(packetLength(packetDropped))))"
attr title "queue bit length"
attr unit b
vector 96 TimeSyncUEUE.SwitchS1.eth[4].macLayer.queue.queue[7] queueLength:vector ETV
attr autoWarmupFilter false
attr interpolationmode sample-hold
attr recordingmode vector
attr source "warmup(atomic(constant0(packetPushEnded) + count(packetPushStarted) - count(packetPulled) - count(packetRemoved) - count(packetDropped)))"
attr title "queue length"
attr unit pk
vector 97 TimeSyncUEUE.SwitchS1.eth[4].macLayer.queue.queue[7] queueBitLength:vector ETV
attr autoWarmupFilter false
attr interpolationmode sample-hold
attr recordingmode vector
attr source "warmup(atomic(constant0(packetPushEnded) + sum(packetLength(packetPushStarted)) - sum(packetLength(packetPulled)) - sum(packetLength(packetRemoved)) - sum(packetLength(packetDropped))))"
attr title "queue bit length"
attr unit b
vector 98 TimeSyncUEUE.SwitchS1.eth[4].phyLayer.interFrameGapInserter interpacketGap:vector ETV
attr interpolationmode sample-hold
attr recordingmode vector
attr source "count(interpacketGapStarted) - count(interpacketGapEnded)"
attr title "interpacket gap state"
attr type int
vector 99 TimeSyncUEUE.SwitchS1.eth[4].phyLayer.transmitter transmitting:vector ETV
attr interpolationmode sample-hold
attr recordingmode vector
attr source "count(transmissionStarted) - count(transmissionEnded)"
attr title "transmitting state"
attr type int
vector 100 TimeSyncUEUE.SensorS1.eth[0].macLayer.queue queueLength:vector ETV
attr autoWarmupFilter false
attr interpolationmode sample-hold
attr recordingmode vector
attr source "warmup(atomic(constant0(localSignal(packetPushEnded)) + count(localSignal(packetPushStarted)) - count(localSignal(packetPulled)) - count(localSignal(packetRemoved)) - count(localSignal(packetDropped))))"
attr title "queue length"
attr unit pk
vector 101 TimeSyncUEUE.SensorS1.eth[0].macLayer.queue queueBitLength:vector ETV
attr autoWarmupFilter false
attr interpolationmode sample-hold
attr recordingmode vector
attr source "warmup(atomic(constant0(localSignal(packetPushEnded)) + sum(packetLength(localSignal(packetPushStarted))) - sum(packetLength(localSignal(packetPulled))) - sum(packetLength(localSignal(packetRemoved))) - sum(packetLength(localSignal(packetDropped)))))"
attr title "queue bit length"
attr unit b
vector 102 TimeSyncUEUE.SensorS1.eth[0].macLayer.queue.queue[0] queueLength:vector ETV
attr autoWarmupFilter false
attr interpolationmode sample-hold
attr recordingmode vector
attr source "warmup(atomic(constant0(packetPushEnded) + count(packetPushStarted) - count(packetPulled) - count(packetRemoved) - count(packetDropped)))"
attr title "queue length"
attr unit pk
vector 103 TimeSyncUEUE.SensorS1.eth[0].macLayer.queue.queue[0] queueBitLength:vector ETV
attr autoWarmupFilter false
attr interpolationmode sample-hold
attr recordingmode vector
attr source "warmup(atomic(constant0(packetPushEnded) + sum(packetLength(packetPushStarted)) - sum(packetLength(packetPulled)) - sum(packetLength(packetRemoved)) - sum(packetLength(packetDropped))))"
attr title "queue bit length"
attr unit b
vector 104 TimeSyncUEUE.SensorS1.eth[0].macLayer.queue.queue[1] queueLength:vector ETV
attr autoWarmupFilter false
attr interpolationmode sample-hold
attr recordingmode vector
attr source "warmup(atomic(constant0(packetPushEnded) + count(packetPushStarted) - count(packetPulled) - count(packetRemoved) - count(packetDropped)))"
attr title "queue length"
attr unit pk
vector 105 TimeSyncUEUE.SensorS1.eth[0].macLayer.queue.queue[1] queueBitLength:vector ETV
attr autoWarmupFilter false
attr interpolationmode sample-hold
attr recordingmode vector
attr source "warmup(atomic(constant0(packetPushEnded) + sum(packetLength(packetPushStarted)) - sum(packetLength(packetPulled)) - sum(packetLength(packetRemoved)) - sum(packetLength(packetDropped))))"
attr title "queue bit length"
attr unit b
vector 106 TimeSyncUEUE.SensorS1.eth[0].macLayer.queue.queue[2] queueLength:vector ETV
attr autoWarmupFilter false
attr interpolationmode sample-hold
attr recordingmode vector
attr source "warmup(atomic(constant0(packetPushEnded) + count(packetPushStarted) - count(packetPulled) - count(packetRemoved) - count(packetDropped)))"
attr title "queue length"
attr unit pk
vector 107 TimeSyncUEUE.SensorS1.eth[0].macLayer.queue.queue[2] queueBitLength:vector ETV
attr autoWarmupFilter false
attr interpolationmode sample-hold
attr recordingmode vector
attr source "warmup(atomic(constant0(packetPushEnded) + sum(packetLength(packetPushStarted)) - sum(packetLength(packetPulled)) - sum(packetLength(packetRemoved)) - sum(packetLength(packetDropped))))"
attr title "queue bit length"
attr unit b
vector 108 TimeSyncUEUE.SensorS1.eth[0].macLayer.queue.queue[3] queueLength:vector ETV
attr autoWarmupFilter false
attr interpolationmode sample-hold
attr recordingmode vector
attr source "warmup(atomic(constant0(packetPushEnded) + count(packetPushStarted) - count(packetPulled) - count(packetRemoved) - count(packetDropped)))"
attr title "queue length"
attr unit pk
vector 109 TimeSyncUEUE.SensorS1.eth[0].macLayer.queue.queue[3] queueBitLength:vector ETV
attr autoWarmupFilter false
attr interpolationmode sample-hold
attr recordingmode vector
attr source "warmup(atomic(constant0(packetPushEnded) + sum(packetLength(packetPushStarted)) - sum(packetLength(packetPulled)) - sum(packetLength(packetRemoved)) - sum(packetLength(packetDropped))))"
attr title "queue bit length"
attr unit b
vector 110 TimeSyncUEUE.SensorS1.eth[0].macLayer.queue.queue[4] queueLength:vector ETV
attr autoWarmupFilter false
attr interpolationmode sample-hold
attr recordingmode vector
attr source "warmup(atomic(constant0(packetPushEnded) + count(packetPushStarted) - count(packetPulled) - count(packetRemoved) - count(packetDropped)))"
attr title "queue length"
attr unit pk
vector 111 TimeSyncUEUE.SensorS1.eth[0].macLayer.queue.queue[4] queueBitLength:vector ETV
attr autoWarmupFilter false
attr interpolationmode sample-hold
attr recordingmode vector
attr source "warmup(atomic(constant0(packetPushEnded) + sum(packetLength(packetPushStarted)) - sum(packetLength(packetPulled)) - sum(packetLength(packetRemoved)) - sum(packetLength(packetDropped))))"
attr title "queue bit length"
attr unit b
vector 112 TimeSyncUEUE.SensorS1.eth[0].macLayer.queue.queue[5] queueLength:vector ETV
attr autoWarmupFilter false
attr interpolationmode sample-hold
attr recordingmode vector
attr source "warmup(atomic(constant0(packetPushEnded) + count(packetPushStarted) - count(packetPulled) - count(packetRemoved) - count(packetDropped)))"
attr title "queue length"
attr unit pk
vector 113 TimeSyncUEUE.SensorS1.eth[0].macLayer.queue.queue[5] queueBitLength:vector ETV
attr autoWarmupFilter false
attr interpolationmode sample-hold
attr recordingmode vector
attr source "warmup(atomic(constant0(packetPushEnded) + sum(packetLength(packetPushStarted)) - sum(packetLength(packetPulled)) - sum(packetLength(packetRemoved)) - sum(packetLength(packetDropped))))"
attr title "queue bit length"
attr unit b
vector 114 TimeSyncUEUE.SensorS1.eth[0].macLayer.queue.queue[6] queueLength:vector ETV
attr autoWarmupFilter false
attr interpolationmode sample-hold
attr recordingmode vector
attr source "warmup(atomic(constant0(packetPushEnded) + count(packetPushStarted) - count(packetPulled) - count(packetRemoved) - count(packetDropped)))"
attr title "queue length"
attr unit pk
vector 115 TimeSyncUEUE.SensorS1.eth[0].macLayer.queue.queue[6] queueBitLength:vector ETV
attr autoWarmupFilter false
attr interpolationmode sample-hold
attr recordingmode vector
attr source "warmup(atomic(constant0(packetPushEnded) + sum(packetLength(packetPushStarted)) - sum(packetLength(packetPulled)) - sum(packetLength(packetRemoved)) - sum(packetLength(packetDropped))))"
attr title "queue bit length"
attr unit b
vector 116 TimeSyncUEUE.SensorS1.eth[0].macLayer.queue.queue[7] queueLength:vector ETV
attr autoWarmupFilter false
attr interpolationmode sample-hold
attr recordingmode vector
attr source "warmup(atomic(constant0(packetPushEnded) + count(packetPushStarted) - count(packetPulled) - count(packetRemoved) - count(packetDropped)))"
attr title "queue length"
attr unit pk
vector 117 TimeSyncUEUE.SensorS1.eth[0].macLayer.queue.queue[7] queueBitLength:vector ETV
attr autoWarmupFilter false
attr interpolationmode sample-hold
attr recordingmode vector
attr source "warmup(atomic(constant0(packetPushEnded) + sum(packetLength(packetPushStarted)) - sum(packetLength(packetPulled)) - sum(packetLength(packetRemoved)) - sum(packetLength(packetDropped))))"
attr title "queue bit length"
attr unit b
vector 118 TimeSyncUEUE.SensorS1.eth[0].phyLayer.interFrameGapInserter interpacketGap:vector ETV
attr interpolationmode sample-hold
attr recordingmode vector
attr source "count(interpacketGapStarted) - count(interpacketGapEnded)"
attr title "interpacket gap state"
attr type int
vector 119 TimeSyncUEUE.SensorS1.eth[0].phyLayer.transmitter transmitting:vector ETV
attr interpolationmode sample-hold
attr recordingmode vector
attr source "count(transmissionStarted) - count(transmissionEnded)"
attr title "transmitting state"
attr type int
vector 120 TimeSyncUEUE.SensorS1.udp passedUpPk:vector(count) ETV
attr interpolationmode none
attr recordingmode vector(count)
attr source packetSentToUpper
attr title "packets passed up, count"
vector 121 TimeSyncUEUE.SensorS1.udp droppedPkWrongPort:vector(count) ETV
attr interpolationmode none
attr recordingmode vector(count)
attr source packetDropReasonIsNoPortFound(packetDropped)
attr title "packets dropped (wrong port), count"
vector 122 TimeSyncUEUE.SensorS1.udp droppedPkBadChecksum:vector(count) ETV
attr interpolationmode none
attr recordingmode vector(count)
attr source packetDropReasonIsIncorrectlyReceived(packetDropped)
attr title "packets dropped (checksum error), count"
vector 123 TimeSyncUEUE.CameraS1.eth[0].macLayer.queue queueLength:vector ETV
attr autoWarmupFilter false
attr interpolationmode sample-hold
attr recordingmode vector
attr source "warmup(atomic(constant0(localSignal(packetPushEnded)) + count(localSignal(packetPushStarted)) - count(localSignal(packetPulled)) - count(localSignal(packetRemoved)) - count(localSignal(packetDropped))))"
attr title "queue length"
attr unit pk
vector 124 TimeSyncUEUE.CameraS1.eth[0].macLayer.queue queueBitLength:vector ETV
attr autoWarmupFilter false
attr interpolationmode sample-hold
attr recordingmode vector
attr source "warmup(atomic(constant0(localSignal(packetPushEnded)) + sum(packetLength(localSignal(packetPushStarted))) - sum(packetLength(localSignal(packetPulled))) - sum(packetLength(localSignal(packetRemoved))) - sum(packetLength(localSignal(packetDropped)))))"
attr title "queue bit length"
attr unit b
vector 125 TimeSyncUEUE.CameraS1.eth[0].macLayer.queue.queue[0] queueLength:vector ETV
attr autoWarmupFilter false
attr interpolationmode sample-hold
attr recordingmode vector
attr source "warmup(atomic(constant0(packetPushEnded) + count(packetPushStarted) - count(packetPulled) - count(packetRemoved) - count(packetDropped)))"
attr title "queue length"
attr unit pk
vector 126 TimeSyncUEUE.CameraS1.eth[0].macLayer.queue.queue[0] queueBitLength:vector ETV
attr autoWarmupFilter false
attr interpolationmode sample-hold
attr recordingmode vector
attr source "warmup(atomic(constant0(packetPushEnded) + sum(packetLength(packetPushStarted)) - sum(packetLength(packetPulled)) - sum(packetLength(packetRemoved)) - sum(packetLength(packetDropped))))"
attr title "queue bit length"
attr unit b
vector 127 TimeSyncUEUE.CameraS1.eth[0].macLayer.queue.queue[1] queueLength:vector ETV
attr autoWarmupFilter false
attr interpolationmode sample-hold
attr recordingmode vector
attr source "warmup(atomic(constant0(packetPushEnded) + count(packetPushStarted) - count(packetPulled) - count(packetRemoved) - count(packetDropped)))"
attr title "queue length"
attr unit pk
vector 128 TimeSyncUEUE.CameraS1.eth[0].macLayer.queue.queue[1] queueBitLength:vector ETV
attr autoWarmupFilter false
attr interpolationmode sample-hold
attr recordingmode vector
attr source "warmup(atomic(constant0(packetPushEnded) + sum(packetLength(packetPushStarted)) - sum(packetLength(packetPulled)) - sum(packetLength(packetRemoved)) - sum(packetLength(packetDropped))))"
attr title "queue bit length"
attr unit b
vector 129 TimeSyncUEUE.CameraS1.eth[0].macLayer.queue.queue[2] queueLength:vector ETV
attr autoWarmupFilter false
attr interpolationmode sample-hold
attr recordingmode vector
attr source "warmup(atomic(constant0(packetPushEnded) + count(packetPushStarted) - count(packetPulled) - count(packetRemoved) - count(packetDropped)))"
attr title "queue length"
attr unit pk
vector 130 TimeSyncUEUE.CameraS1.eth[0].macLayer.queue.queue[2] queueBitLength:vector ETV
attr autoWarmupFilter false
attr interpolationmode sample-hold
attr recordingmode vector
attr source "warmup(atomic(constant0(packetPushEnded) + sum(packetLength(packetPushStarted)) - sum(packetLength(packetPulled)) - sum(packetLength(packetRemoved)) - sum(packetLength(packetDropped))))"
attr title "queue bit length"
attr unit b
vector 131 TimeSyncUEUE.CameraS1.eth[0].macLayer.queue.queue[3] queueLength:vector ETV
attr autoWarmupFilter false
attr interpolationmode sample-hold
attr recordingmode vector
attr source "warmup(atomic(constant0(packetPushEnded) + count(packetPushStarted) - count(packetPulled) - count(packetRemoved) - count(packetDropped)))"
attr title "queue length"
attr unit pk
vector 132 TimeSyncUEUE.CameraS1.eth[0].macLayer.queue.queue[3] queueBitLength:vector ETV
attr autoWarmupFilter false
attr interpolationmode sample-hold
attr recordingmode vector
attr source "warmup(atomic(constant0(packetPushEnded) + sum(packetLength(packetPushStarted)) - sum(packetLength(packetPulled)) - sum(packetLength(packetRemoved)) - sum(packetLength(packetDropped))))"
attr title "queue bit length"
attr unit b
vector 133 TimeSyncUEUE.CameraS1.eth[0].macLayer.queue.queue[4] queueLength:vector ETV
attr autoWarmupFilter false
attr interpolationmode sample-hold
attr recordingmode vector
attr source "warmup(atomic(constant0(packetPushEnded) + count(packetPushStarted) - count(packetPulled) - count(packetRemoved) - count(packetDropped)))"
attr title "queue length"
attr unit pk
vector 134 TimeSyncUEUE.CameraS1.eth[0].macLayer.queue.queue[4] queueBitLength:vector ETV
attr autoWarmupFilter false
attr interpolationmode sample-hold
attr recordingmode vector
attr source "warmup(atomic(constant0(packetPushEnded) + sum(packetLength(packetPushStarted)) - sum(packetLength(packetPulled)) - sum(packetLength(packetRemoved)) - sum(packetLength(packetDropped))))"
attr title "queue bit length"
attr unit b
vector 135 TimeSyncUEUE.CameraS1.eth[0].macLayer.queue.queue[5] queueLength:vector ETV
attr autoWarmupFilter false
attr interpolationmode sample-hold
attr recordingmode vector
attr source "warmup(atomic(constant0(packetPushEnded) + count(packetPushStarted) - count(packetPulled) - count(packetRemoved) - count(packetDropped)))"
attr title "queue length"
attr unit pk
vector 136 TimeSyncUEUE.CameraS1.eth[0].macLayer.queue.queue[5] queueBitLength:vector ETV
attr autoWarmupFilter false
attr interpolationmode sample-hold
attr recordingmode vector
attr source "warmup(atomic(constant0(packetPushEnded) + sum(packetLength(packetPushStarted)) - sum(packetLength(packetPulled)) - sum(packetLength(packetRemoved)) - sum(packetLength(packetDropped))))"
attr title "queue bit length"
attr unit b
vector 137 TimeSyncUEUE.CameraS1.eth[0].macLayer.queue.queue[6] queueLength:vector ETV
attr autoWarmupFilter false
attr interpolationmode sample-hold
attr recordingmode vector
attr source "warmup(atomic(constant0(packetPushEnded) + count(packetPushStarted) - count(packetPulled) - count(packetRemoved) - count(packetDropped)))"
attr title "queue length"
attr unit pk
vector 138 TimeSyncUEUE.CameraS1.eth[0].macLayer.queue.queue[6] queueBitLength:vector ETV
attr autoWarmupFilter false
attr interpolationmode sample-hold
attr recordingmode vector
attr source "warmup(atomic(constant0(packetPushEnded) + sum(packetLength(packetPushStarted)) - sum(packetLength(packetPulled)) - sum(packetLength(packetRemoved)) - sum(packetLength(packetDropped))))"
attr title "queue bit length"
attr unit b
vector 139 TimeSyncUEUE.CameraS1.eth[0].macLayer.queue.queue[7] queueLength:vector ETV
attr autoWarmupFilter false
attr interpolationmode sample-hold
attr recordingmode vector
attr source "warmup(atomic(constant0(packetPushEnded) + count(packetPushStarted) - count(packetPulled) - count(packetRemoved) - count(packetDropped)))"
attr title "queue length"
attr unit pk
vector 140 TimeSyncUEUE.CameraS1.eth[0].macLayer.queue.queue[7] queueBitLength:vector ETV
attr autoWarmupFilter false
attr interpolationmode sample-hold
attr recordingmode vector
attr source "warmup(atomic(constant0(packetPushEnded) + sum(packetLength(packetPushStarted)) - sum(packetLength(packetPulled)) - sum(packetLength(packetRemoved)) - sum(packetLength(packetDropped))))"
attr title "queue bit length"
attr unit b
vector 141 TimeSyncUEUE.CameraS1.eth[0].phyLayer.interFrameGapInserter interpacketGap:vector ETV
attr interpolationmode sample-hold
attr recordingmode vector
attr source "count(interpacketGapStarted) - count(interpacketGapEnded)"
attr title "interpacket gap state"
attr type int
vector 142 TimeSyncUEUE.CameraS1.eth[0].phyLayer.transmitter transmitting:vector ETV
attr interpolationmode sample-hold
attr recordingmode vector
attr source "count(transmissionStarted) - count(transmissionEnded)"
attr title "transmitting state"
attr type int
vector 143 TimeSyncUEUE.CameraS1.udp passedUpPk:vector(count) ETV
attr interpolationmode none
attr recordingmode vector(count)
attr source packetSentToUpper
attr title "packets passed up, count"
vector 144 TimeSyncUEUE.CameraS1.udp droppedPkWrongPort:vector(count) ETV
attr interpolationmode none
attr recordingmode vector(count)
attr source packetDropReasonIsNoPortFound(packetDropped)
attr title "packets dropped (wrong port), count"
vector 145 TimeSyncUEUE.CameraS1.udp droppedPkBadChecksum:vector(count) ETV
attr interpolationmode none
attr recordingmode vector(count)
attr source packetDropReasonIsIncorrectlyReceived(packetDropped)
attr title "packets dropped (checksum error), count"
vector 146 TimeSyncUEUE.EsteiraS1.eth[0].macLayer.queue queueLength:vector ETV
attr autoWarmupFilter false
attr interpolationmode sample-hold
attr recordingmode vector
attr source "warmup(atomic(constant0(localSignal(packetPushEnded)) + count(localSignal(packetPushStarted)) - count(localSignal(packetPulled)) - count(localSignal(packetRemoved)) - count(localSignal(packetDropped))))"
attr title "queue length"
attr unit pk
vector 147 TimeSyncUEUE.EsteiraS1.eth[0].macLayer.queue queueBitLength:vector ETV
attr autoWarmupFilter false
attr interpolationmode sample-hold
attr recordingmode vector
attr source "warmup(atomic(constant0(localSignal(packetPushEnded)) + sum(packetLength(localSignal(packetPushStarted))) - sum(packetLength(localSignal(packetPulled))) - sum(packetLength(localSignal(packetRemoved))) - sum(packetLength(localSignal(packetDropped)))))"
attr title "queue bit length"
attr unit b
vector 148 TimeSyncUEUE.EsteiraS1.eth[0].macLayer.queue.queue[0] queueLength:vector ETV
attr autoWarmupFilter false
attr interpolationmode sample-hold
attr recordingmode vector
attr source "warmup(atomic(constant0(packetPushEnded) + count(packetPushStarted) - count(packetPulled) - count(packetRemoved) - count(packetDropped)))"
attr title "queue length"
attr unit pk
vector 149 TimeSyncUEUE.EsteiraS1.eth[0].macLayer.queue.queue[0] queueBitLength:vector ETV
attr autoWarmupFilter false
attr interpolationmode sample-hold
attr recordingmode vector
attr source "warmup(atomic(constant0(packetPushEnded) + sum(packetLength(packetPushStarted)) - sum(packetLength(packetPulled)) - sum(packetLength(packetRemoved)) - sum(packetLength(packetDropped))))"
attr title "queue bit length"
attr unit b
vector 150 TimeSyncUEUE.EsteiraS1.eth[0].macLayer.queue.queue[1] queueLength:vector ETV
attr autoWarmupFilter false
attr interpolationmode sample-hold
attr recordingmode vector
attr source "warmup(atomic(constant0(packetPushEnded) + count(packetPushStarted) - count(packetPulled) - count(packetRemoved) - count(packetDropped)))"
attr title "queue length"
attr unit pk
vector 151 TimeSyncUEUE.EsteiraS1.eth[0].macLayer.queue.queue[1] queueBitLength:vector ETV
attr autoWarmupFilter false
attr interpolationmode sample-hold
attr recordingmode vector
attr source "warmup(atomic(constant0(packetPushEnded) + sum(packetLength(packetPushStarted)) - sum(packetLength(packetPulled)) - sum(packetLength(packetRemoved)) - sum(packetLength(packetDropped))))"
attr title "queue bit length"
attr unit b
vector 152 TimeSyncUEUE.EsteiraS1.eth[0].macLayer.queue.queue[2] queueLength:vector ETV
attr autoWarmupFilter false
attr interpolationmode sample-hold
attr recordingmode vector
attr source "warmup(atomic(constant0(packetPushEnded) + count(packetPushStarted) - count(packetPulled) - count(packetRemoved) - count(packetDropped)))"
attr title "queue length"
attr unit pk
vector 153 TimeSyncUEUE.EsteiraS1.eth[0].macLayer.queue.queue[2] queueBitLength:vector ETV
attr autoWarmupFilter false
attr interpolationmode sample-hold
attr recordingmode vector
attr source "warmup(atomic(constant0(packetPushEnded) + sum(packetLength(packetPushStarted)) - sum(packetLength(packetPulled)) - sum(packetLength(packetRemoved)) - sum(packetLength(packetDropped))))"
attr title "queue bit length"
attr unit b
vector 154 TimeSyncUEUE.EsteiraS1.eth[0].macLayer.queue.queue[3] queueLength:vector ETV
attr autoWarmupFilter false
attr interpolationmode sample-hold
attr recordingmode vector
attr source "warmup(atomic(constant0(packetPushEnded) + count(packetPushStarted) - count(packetPulled) - count(packetRemoved) - count(packetDropped)))"
attr title "queue length"
attr unit pk
vector 155 TimeSyncUEUE.EsteiraS1.eth[0].macLayer.queue.queue[3] queueBitLength:vector ETV
attr autoWarmupFilter false
attr interpolationmode sample-hold
attr recordingmode vector
attr source "warmup(atomic(constant0(packetPushEnded) + sum(packetLength(packetPushStarted)) - sum(packetLength(packetPulled)) - sum(packetLength(packetRemoved)) - sum(packetLength(packetDropped))))"
attr title "queue bit length"
attr unit b
vector 156 TimeSyncUEUE.EsteiraS1.eth[0].macLayer.queue.queue[4] queueLength:vector ETV
attr autoWarmupFilter false
attr interpolationmode sample-hold
attr recordingmode vector
attr source "warmup(atomic(constant0(packetPushEnded) + count(packetPushStarted) - count(packetPulled) - count(packetRemoved) - count(packetDropped)))"
attr title "queue length"
attr unit pk
vector 157 TimeSyncUEUE.EsteiraS1.eth[0].macLayer.queue.queue[4] queueBitLength:vector ETV
attr autoWarmupFilter false
attr interpolationmode sample-hold
attr recordingmode vector
attr source "warmup(atomic(constant0(packetPushEnded) + sum(packetLength(packetPushStarted)) - sum(packetLength(packetPulled)) - sum(packetLength(packetRemoved)) - sum(packetLength(packetDropped))))"
attr title "queue bit length"
attr unit b
vector 158 TimeSyncUEUE.EsteiraS1.eth[0].macLayer.queue.queue[5] queueLength:vector ETV
attr autoWarmupFilter false
attr interpolationmode sample-hold
attr recordingmode vector
attr source "warmup(atomic(constant0(packetPushEnded) + count(packetPushStarted) - count(packetPulled) - count(packetRemoved) - count(packetDropped)))"
attr title "queue length"
attr unit pk
vector 159 TimeSyncUEUE.EsteiraS1.eth[0].macLayer.queue.queue[5] queueBitLength:vector ETV
attr autoWarmupFilter false
attr interpolationmode sample-hold
attr recordingmode vector
attr source "warmup(atomic(constant0(packetPushEnded) + sum(packetLength(packetPushStarted)) - sum(packetLength(packetPulled)) - sum(packetLength(packetRemoved)) - sum(packetLength(packetDropped))))"
attr title "queue bit length"
attr unit b
vector 160 TimeSyncUEUE.EsteiraS1.eth[0].macLayer.queue.queue[6] queueLength:vector ETV
attr autoWarmupFilter false
attr interpolationmode sample-hold
attr recordingmode vector
attr source "warmup(atomic(constant0(packetPushEnded) + count(packetPushStarted) - count(packetPulled) - count(packetRemoved) - count(packetDropped)))"
attr title "queue length"
attr unit pk
vector 161 TimeSyncUEUE.EsteiraS1.eth[0].macLayer.queue.queue[6] queueBitLength:vector ETV
attr autoWarmupFilter false
attr interpolationmode sample-hold
attr recordingmode vector
attr source "warmup(atomic(constant0(packetPushEnded) + sum(packetLength(packetPushStarted)) - sum(packetLength(packetPulled)) - sum(packetLength(packetRemoved)) - sum(packetLength(packetDropped))))"
attr title "queue bit length"
attr unit b
vector 162 TimeSyncUEUE.EsteiraS1.eth[0].macLayer.queue.queue[7] queueLength:vector ETV
attr autoWarmupFilter false
attr interpolationmode sample-hold
attr recordingmode vector
attr source "warmup(atomic(constant0(packetPushEnded) + count(packetPushStarted) - count(packetPulled) - count(packetRemoved) - count(packetDropped)))"
attr title "queue length"
attr unit pk
vector 163 TimeSyncUEUE.EsteiraS1.eth[0].macLayer.queue.queue[7] queueBitLength:vector ETV
attr autoWarmupFilter false
attr interpolationmode sample-hold
attr recordingmode vector
attr source "warmup(atomic(constant0(packetPushEnded) + sum(packetLength(packetPushStarted)) - sum(packetLength(packetPulled)) - sum(packetLength(packetRemoved)) - sum(packetLength(packetDropped))))"
attr title "queue bit length"
attr unit b
vector 164 TimeSyncUEUE.EsteiraS1.eth[0].phyLayer.interFrameGapInserter interpacketGap:vector ETV
attr interpolationmode sample-hold
attr recordingmode vector
attr source "count(interpacketGapStarted) - count(interpacketGapEnded)"
attr title "interpacket gap state"
attr type int
vector 165 TimeSyncUEUE.EsteiraS1.eth[0].phyLayer.transmitter transmitting:vector ETV
attr interpolationmode sample-hold
attr recordingmode vector
attr source "count(transmissionStarted) - count(transmissionEnded)"
attr title "transmitting state"
attr type int
vector 166 TimeSyncUEUE.EsteiraS1.udp passedUpPk:vector(count) ETV
attr interpolationmode none
attr recordingmode vector(count)
attr source packetSentToUpper
attr title "packets passed up, count"
vector 167 TimeSyncUEUE.EsteiraS1.udp droppedPkWrongPort:vector(count) ETV
attr interpolationmode none
attr recordingmode vector(count)
attr source packetDropReasonIsNoPortFound(packetDropped)
attr title "packets dropped (wrong port), count"
vector 168 TimeSyncUEUE.EsteiraS1.udp droppedPkBadChecksum:vector(count) ETV
attr interpolationmode none
attr recordingmode vector(count)
attr source packetDropReasonIsIncorrectlyReceived(packetDropped)
attr title "packets dropped (checksum error), count"
vector 169 TimeSyncUEUE.RoboS1.eth[0].macLayer.queue queueLength:vector ETV
attr autoWarmupFilter false
attr interpolationmode sample-hold
attr recordingmode vector
attr source "warmup(atomic(constant0(localSignal(packetPushEnded)) + count(localSignal(packetPushStarted)) - count(localSignal(packetPulled)) - count(localSignal(packetRemoved)) - count(localSignal(packetDropped))))"
attr title "queue length"
attr unit pk
vector 170 TimeSyncUEUE.RoboS1.eth[0].macLayer.queue queueBitLength:vector ETV
attr autoWarmupFilter false
attr interpolationmode sample-hold
attr recordingmode vector
attr source "warmup(atomic(constant0(localSignal(packetPushEnded)) + sum(packetLength(localSignal(packetPushStarted))) - sum(packetLength(localSignal(packetPulled))) - sum(packetLength(localSignal(packetRemoved))) - sum(packetLength(localSignal(packetDropped)))))"
attr title "queue bit length"
attr unit b
vector 171 TimeSyncUEUE.RoboS1.eth[0].macLayer.queue.queue[0] queueLength:vector ETV
attr autoWarmupFilter false
attr interpolationmode sample-hold
attr recordingmode vector
attr source "warmup(atomic(constant0(packetPushEnded) + count(packetPushStarted) - count(packetPulled) - count(packetRemoved) - count(packetDropped)))"
attr title "queue length"
attr unit pk
vector 172 TimeSyncUEUE.RoboS1.eth[0].macLayer.queue.queue[0] queueBitLength:vector ETV
attr autoWarmupFilter false
attr interpolationmode sample-hold
attr recordingmode vector
attr source "warmup(atomic(constant0(packetPushEnded) + sum(packetLength(packetPushStarted)) - sum(packetLength(packetPulled)) - sum(packetLength(packetRemoved)) - sum(packetLength(packetDropped))))"
attr title "queue bit length"
attr unit b
vector 173 TimeSyncUEUE.RoboS1.eth[0].macLayer.queue.queue[1] queueLength:vector ETV
attr autoWarmupFilter false
attr interpolationmode sample-hold
attr recordingmode vector
attr source "warmup(atomic(constant0(packetPushEnded) + count(packetPushStarted) - count(packetPulled) - count(packetRemoved) - count(packetDropped)))"
attr title "queue length"
attr unit pk
vector 174 TimeSyncUEUE.RoboS1.eth[0].macLayer.queue.queue[1] queueBitLength:vector ETV
attr autoWarmupFilter false
attr interpolationmode sample-hold
attr recordingmode vector
attr source "warmup(atomic(constant0(packetPushEnded) + sum(packetLength(packetPushStarted)) - sum(packetLength(packetPulled)) - sum(packetLength(packetRemoved)) - sum(packetLength(packetDropped))))"
attr title "queue bit length"
attr unit b
vector 175 TimeSyncUEUE.RoboS1.eth[0].macLayer.queue.queue[2] queueLength:vector ETV
attr autoWarmupFilter false
attr interpolationmode sample-hold
attr recordingmode vector
attr source "warmup(atomic(constant0(packetPushEnded) + count(packetPushStarted) - count(packetPulled) - count(packetRemoved) - count(packetDropped)))"
attr title "queue length"
attr unit pk
vector 176 TimeSyncUEUE.RoboS1.eth[0].macLayer.queue.queue[2] queueBitLength:vector ETV
attr autoWarmupFilter false
attr interpolationmode sample-hold
attr recordingmode vector
attr source "warmup(atomic(constant0(packetPushEnded) + sum(packetLength(packetPushStarted)) - sum(packetLength(packetPulled)) - sum(packetLength(packetRemoved)) - sum(packetLength(packetDropped))))"
attr title "queue bit length"
attr unit b
vector 177 TimeSyncUEUE.RoboS1.eth[0].macLayer.queue.queue[3] queueLength:vector ETV
attr autoWarmupFilter false
attr interpolationmode sample-hold
attr recordingmode vector
attr source "warmup(atomic(constant0(packetPushEnded) + count(packetPushStarted) - count(packetPulled) - count(packetRemoved) - count(packetDropped)))"
attr title "queue length"
attr unit pk
vector 178 TimeSyncUEUE.RoboS1.eth[0].macLayer.queue.queue[3] queueBitLength:vector ETV
attr autoWarmupFilter false
attr interpolationmode sample-hold
attr recordingmode vector
attr source "warmup(atomic(constant0(packetPushEnded) + sum(packetLength(packetPushStarted)) - sum(packetLength(packetPulled)) - sum(packetLength(packetRemoved)) - sum(packetLength(packetDropped))))"
attr title "queue bit length"
attr unit b
vector 179 TimeSyncUEUE.RoboS1.eth[0].macLayer.queue.queue[4] queueLength:vector ETV
attr autoWarmupFilter false
attr interpolationmode sample-hold
attr recordingmode vector
attr source "warmup(atomic(constant0(packetPushEnded) + count(packetPushStarted) - count(packetPulled) - count(packetRemoved) - count(packetDropped)))"
attr title "queue length"
attr unit pk
vector 180 TimeSyncUEUE.RoboS1.eth[0].macLayer.queue.queue[4] queueBitLength:vector ETV
attr autoWarmupFilter false
attr interpolationmode sample-hold
attr recordingmode vector
attr source "warmup(atomic(constant0(packetPushEnded) + sum(packetLength(packetPushStarted)) - sum(packetLength(packetPulled)) - sum(packetLength(packetRemoved)) - sum(packetLength(packetDropped))))"
attr title "queue bit length"
attr unit b
vector 181 TimeSyncUEUE.RoboS1.eth[0].macLayer.queue.queue[5] queueLength:vector ETV
attr autoWarmupFilter false
attr interpolationmode sample-hold
attr recordingmode vector
attr source "warmup(atomic(constant0(packetPushEnded) + count(packetPushStarted) - count(packetPulled) - count(packetRemoved) - count(packetDropped)))"
attr title "queue length"
attr unit pk
vector 182 TimeSyncUEUE.RoboS1.eth[0].macLayer.queue.queue[5] queueBitLength:vector ETV
attr autoWarmupFilter false
[...]
158	0	0	0
158	0	0	0
158	0	0	0
158	0	0	0
159	0	0	0
159	0	0	0
159	0	0	0
159	0	0	0
159	0	0	0
160	0	0	0
160	0	0	0
160	0	0	0
160	0	0	0
160	0	0	0
161	0	0	0
161	0	0	0
161	0	0	0
161	0	0	0
161	0	0	0
162	0	0	0
162	0	0	0
162	0	0	0
162	0	0	0
162	0	0	0
163	0	0	0
163	0	0	0
163	0	0	0
163	0	0	0
163	0	0	0
164	0	0	0
164	0	0	0
165	0	0	0
165	0	0	0
166	0	0	0
167	0	0	0
168	0	0	0
169	0	0	0
169	0	0	0
169	0	0	0
169	0	0	0
169	0	0	0
170	0	0	0
170	0	0	0
170	0	0	0
170	0	0	0
170	0	0	0
171	0	0	0
171	0	0	0
171	0	0	0
171	0	0	0
171	0	0	0
172	0	0	0
172	0	0	0
172	0	0	0
172	0	0	0
172	0	0	0
173	0	0	0
173	0	0	0
173	0	0	0
173	0	0	0
173	0	0	0
174	0	0	0
174	0	0	0
174	0	0	0
174	0	0	0
174	0	0	0
175	0	0	0
175	0	0	0
175	0	0	0
175	0	0	0
175	0	0	0
176	0	0	0
176	0	0	0
176	0	0	0
176	0	0	0
176	0	0	0
177	0	0	0
177	0	0	0
177	0	0	0
177	0	0	0
177	0	0	0
178	0	0	0
178	0	0	0
178	0	0	0
178	0	0	0
178	0	0	0
179	0	0	0
179	0	0	0
179	0	0	0
179	0	0	0
179	0	0	0
180	0	0	0
180	0	0	0
180	0	0	0
180	0	0	0
180	0	0	0
181	0	0	0
181	0	0	0
181	0	0	0
181	0	0	0
181	0	0	0
182	0	0	0
182	0	0	0
182	0	0	0
182	0	0	0
182	0	0	0
183	0	0	0
183	0	0	0
183	0	0	0
183	0	0	0
183	0	0	0
184	0	0	0
184	0	0	0
184	0	0	0
184	0	0	0
184	0	0	0
185	0	0	0
185	0	0	0
185	0	0	0
185	0	0	0
185	0	0	0
186	0	0	0
186	0	0	0
186	0	0	0
186	0	0	0
186	0	0	0
187	0	0	0
187	0	0	0
188	0	0	0
188	0	0	0
189	0	0	0
190	0	0	0
191	0	0	0
192	0	0	0
192	0	0	0
192	0	0	0
192	0	0	0
192	0	0	0
193	0	0	0
193	0	0	0
193	0	0	0
193	0	0	0
193	0	0	0
194	0	0	0
194	0	0	0
194	0	0	0
194	0	0	0
194	0	0	0
195	0	0	0
195	0	0	0
195	0	0	0
195	0	0	0
195	0	0	0
196	0	0	0
196	0	0	0
196	0	0	0
196	0	0	0
196	0	0	0
197	0	0	0
197	0	0	0
197	0	0	0
197	0	0	0
197	0	0	0
198	0	0	0
198	0	0	0
198	0	0	0
198	0	0	0
198	0	0	0
199	0	0	0
199	0	0	0
199	0	0	0
199	0	0	0
199	0	0	0
200	0	0	0
200	0	0	0
200	0	0	0
200	0	0	0
200	0	0	0
201	0	0	0
201	0	0	0
201	0	0	0
201	0	0	0
201	0	0	0
202	0	0	0
202	0	0	0
202	0	0	0
202	0	0	0
202	0	0	0
203	0	0	0
203	0	0	0
203	0	0	0
203	0	0	0
203	0	0	0
204	0	0	0
204	0	0	0
204	0	0	0
204	0	0	0
204	0	0	0
205	0	0	0
205	0	0	0
205	0	0	0
205	0	0	0
205	0	0	0
206	0	0	0
206	0	0	0
206	0	0	0
206	0	0	0
206	0	0	0
207	0	0	0
207	0	0	0
207	0	0	0
207	0	0	0
207	0	0	0
208	0	0	0
208	0	0	0
208	0	0	0
208	0	0	0
208	0	0	0
209	0	0	0
209	0	0	0
209	0	0	0
209	0	0	0
209	0	0	0
210	0	0	0
210	0	0	0
211	0	0	0
211	0	0	0
212	0	0	0
212	0	0	0
212	0	0	0
212	0	0	0
212	0	0	0
213	0	0	0
213	0	0	0
213	0	0	0
213	0	0	0
213	0	0	0
214	0	0	0
214	0	0	0
214	0	0	0
214	0	0	0
214	0	0	0
215	0	0	0
215	0	0	0
215	0	0	0
215	0	0	0
215	0	0	0
216	0	0	0
216	0	0	0
216	0	0	0
216	0	0	0
216	0	0	0
217	0	0	0
217	0	0	0
217	0	0	0
217	0	0	0
217	0	0	0
218	0	0	0
218	0	0	0
218	0	0	0
218	0	0	0
218	0	0	0
219	0	0	0
219	0	0	0
219	0	0	0
219	0	0	0
219	0	0	0
220	0	0	0
220	0	0	0
220	0	0	0
220	0	0	0
220	0	0	0
221	0	0	0
221	0	0	0
221	0	0	0
221	0	0	0
221	0	0	0
222	0	0	0
222	0	0	0
222	0	0	0
222	0	0	0
222	0	0	0
223	0	0	0
223	0	0	0
223	0	0	0
223	0	0	0
223	0	0	0
224	0	0	0
224	0	0	0
224	0	0	0
224	0	0	0
224	0	0	0
225	0	0	0
225	0	0	0
225	0	0	0
225	0	0	0
225	0	0	0
226	0	0	0
226	0	0	0
226	0	0	0
226	0	0	0
226	0	0	0
227	0	0	0
227	0	0	0
227	0	0	0
227	0	0	0
227	0	0	0
228	0	0	0
228	0	0	0
228	0	0	0
228	0	0	0
228	0	0	0
229	0	0	0
229	0	0	0
229	0	0	0
229	0	0	0
229	0	0	0
230	0	0	0
230	0	0	0
231	0	0	0
231	0	0	0
232	0	0	0
232	0	0	0
232	0	0	0
232	0	0	0
232	0	0	0
233	0	0	0
233	0	0	0
233	0	0	0
233	0	0	0
233	0	0	0
234	0	0	0
234	0	0	0
234	0	0	0
234	0	0	0
234	0	0	0
235	0	0	0
235	0	0	0
235	0	0	0
235	0	0	0
235	0	0	0
236	0	0	0
236	0	0	0
236	0	0	0
236	0	0	0
236	0	0	0
237	0	0	0
237	0	0	0
237	0	0	0
237	0	0	0
237	0	0	0
238	0	0	0
238	0	0	0
238	0	0	0
238	0	0	0
238	0	0	0
239	0	0	0
239	0	0	0
239	0	0	0
239	0	0	0
239	0	0	0
240	0	0	0
240	0	0	0
240	0	0	0
240	0	0	0
240	0	0	0
241	0	0	0
241	0	0	0
241	0	0	0
241	0	0	0
241	0	0	0
242	0	0	0
242	0	0	0
242	0	0	0
242	0	0	0
242	0	0	0
243	0	0	0
243	0	0	0
243	0	0	0
243	0	0	0
243	0	0	0
244	0	0	0
244	0	0	0
244	0	0	0
244	0	0	0
244	0	0	0
245	0	0	0
245	0	0	0
245	0	0	0
245	0	0	0
245	0	0	0
246	0	0	0
246	0	0	0
246	0	0	0
246	0	0	0
246	0	0	0
247	0	0	0
247	0	0	0
247	0	0	0
247	0	0	0
247	0	0	0
248	0	0	0
248	0	0	0
248	0	0	0
248	0	0	0
248	0	0	0
249	0	0	0
249	0	0	0
249	0	0	0
249	0	0	0
249	0	0	0
250	0	0	0
250	0	0	0
251	0	0	0
251	0	0	0
252	0	0	0
252	0	0	0
252	0	0	0
252	0	0	0
252	0	0	0
253	0	0	0
253	0	0	0
253	0	0	0
253	0	0	0
253	0	0	0
254	0	0	0
254	0	0	0
254	0	0	0
254	0	0	0
254	0	0	0
255	0	0	0
255	0	0	0
255	0	0	0
255	0	0	0
255	0	0	0
256	0	0	0
256	0	0	0
256	0	0	0
256	0	0	0
256	0	0	0
257	0	0	0
257	0	0	0
257	0	0	0
257	0	0	0
257	0	0	0
258	0	0	0
258	0	0	0
258	0	0	0
258	0	0	0
258	0	0	0
259	0	0	0
259	0	0	0
259	0	0	0
259	0	0	0
259	0	0	0
260	0	0	0
260	0	0	0
260	0	0	0
260	0	0	0
260	0	0	0
261	0	0	0
261	0	0	0
261	0	0	0
261	0	0	0
261	0	0	0
262	0	0	0
262	0	0	0
262	0	0	0
262	0	0	0
262	0	0	0
263	0	0	0
263	0	0	0
263	0	0	0
263	0	0	0
263	0	0	0
264	0	0	0
264	0	0	0
264	0	0	0
264	0	0	0
264	0	0	0
265	0	0	0
265	0	0	0
265	0	0	0
265	0	0	0
265	0	0	0
266	0	0	0
266	0	0	0
266	0	0	0
266	0	0	0
266	0	0	0
267	0	0	0
267	0	0	0
267	0	0	0
267	0	0	0
267	0	0	0
268	0	0	0
268	0	0	0
268	0	0	0
268	0	0	0
268	0	0	0
269	0	0	0
269	0	0	0
269	0	0	0
269	0	0	0
269	0	0	0
270	0	0	0
270	0	0	0
271	0	0	0
271	0	0	0
272	0	0	0
273	0	0	0
274	0	0	0
275	0	0	0
275	0	0	0
275	0	0	0
275	0	0	0
275	0	0	0
276	0	0	0
276	0	0	0
276	0	0	0
276	0	0	0
276	0	0	0
277	0	0	0
277	0	0	0
277	0	0	0
277	0	0	0
277	0	0	0
278	0	0	0
278	0	0	0
278	0	0	0
278	0	0	0
278	0	0	0
279	0	0	0
279	0	0	0
279	0	0	0
279	0	0	0
279	0	0	0
280	0	0	0
280	0	0	0
280	0	0	0
280	0	0	0
280	0	0	0
281	0	0	0
281	0	0	0
281	0	0	0
281	0	0	0
281	0	0	0
282	0	0	0
282	0	0	0
282	0	0	0
282	0	0	0
282	0	0	0
283	0	0	0
283	0	0	0
283	0	0	0
283	0	0	0
283	0	0	0
284	0	0	0
284	0	0	0
284	0	0	0
284	0	0	0
284	0	0	0
285	0	0	0
285	0	0	0
285	0	0	0
285	0	0	0
285	0	0	0
286	0	0	0
286	0	0	0
286	0	0	0
286	0	0	0
286	0	0	0
287	0	0	0
287	0	0	0
287	0	0	0
287	0	0	0
287	0	0	0
288	0	0	0
288	0	0	0
288	0	0	0
288	0	0	0
288	0	0	0
289	0	0	0
289	0	0	0
289	0	0	0
289	0	0	0
289	0	0	0
290	0	0	0
290	0	0	0
290	0	0	0
290	0	0	0
290	0	0	0
291	0	0	0
291	0	0	0
291	0	0	0
291	0	0	0
291	0	0	0
292	0	0	0
292	0	0	0
292	0	0	0
292	0	0	0
292	0	0	0
293	0	0	0
293	0	0	0
294	0	0	0
294	0	0	0
295	0	0	0
296	0	0	0
297	0	0	0
298	0	0	0
298	0	0	0
298	0	0	0
298	0	0	0
298	0	0	0
299	0	0	0
299	0	0	0
299	0	0	0
299	0	0	0
299	0	0	0
300	0	0	0
300	0	0	0
300	0	0	0
300	0	0	0
300	0	0	0
301	0	0	0
301	0	0	0
301	0	0	0
301	0	0	0
301	0	0	0
302	0	0	0
302	0	0	0
302	0	0	0
302	0	0	0
302	0	0	0
303	0	0	0
303	0	0	0
303	0	0	0
303	0	0	0
303	0	0	0
304	0	0	0
304	0	0	0
304	0	0	0
304	0	0	0
304	0	0	0
305	0	0	0
305	0	0	0
305	0	0	0
305	0	0	0
305	0	0	0
306	0	0	0
306	0	0	0
306	0	0	0
306	0	0	0
306	0	0	0
307	0	0	0
307	0	0	0
307	0	0	0
307	0	0	0
307	0	0	0
308	0	0	0
308	0	0	0
308	0	0	0
308	0	0	0
308	0	0	0
309	0	0	0
309	0	0	0
309	0	0	0
309	0	0	0
309	0	0	0
310	0	0	0
310	0	0	0
310	0	0	0
310	0	0	0
310	0	0	0
311	0	0	0
311	0	0	0
311	0	0	0
311	0	0	0
311	0	0	0
312	0	0	0
312	0	0	0
312	0	0	0
312	0	0	0
312	0	0	0
313	0	0	0
313	0	0	0
313	0	0	0
313	0	0	0
313	0	0	0
314	0	0	0
314	0	0	0
314	0	0	0
314	0	0	0
314	0	0	0
315	0	0	0
315	0	0	0
315	0	0	0
315	0	0	0
315	0	0	0
316	0	0	0
316	0	0	0
317	0	0	0
317	0	0	0
318	0	0	0
318	0	0	0
318	0	0	0
318	0	0	0
318	0	0	0
319	0	0	0
319	0	0	0
319	0	0	0
319	0	0	0
319	0	0	0
320	0	0	0
320	0	0	0
320	0	0	0
320	0	0	0
320	0	0	0
321	0	0	0
321	0	0	0
321	0	0	0
321	0	0	0
321	0	0	0
322	0	0	0
322	0	0	0
322	0	0	0
322	0	0	0
322	0	0	0
323	0	0	0
323	0	0	0
323	0	0	0
323	0	0	0
323	0	0	0
324	0	0	0
324	0	0	0
324	0	0	0
324	0	0	0
324	0	0	0
325	0	0	0
325	0	0	0
325	0	0	0
325	0	0	0
325	0	0	0
326	0	0	0
326	0	0	0
326	0	0	0
326	0	0	0
326	0	0	0
327	0	0	0
327	0	0	0
327	0	0	0
327	0	0	0
327	0	0	0
328	0	0	0
328	0	0	0
328	0	0	0
328	0	0	0
328	0	0	0
329	0	0	0
329	0	0	0
329	0	0	0
329	0	0	0
329	0	0	0
330	0	0	0
330	0	0	0
330	0	0	0
330	0	0	0
330	0	0	0
331	0	0	0
331	0	0	0
331	0	0	0
331	0	0	0
331	0	0	0
332	0	0	0
332	0	0	0
332	0	0	0
332	0	0	0
332	0	0	0
333	0	0	0
333	0	0	0
333	0	0	0
333	0	0	0
333	0	0	0
334	0	0	0
334	0	0	0
334	0	0	0
334	0	0	0
334	0	0	0
335	0	0	0
335	0	0	0
335	0	0	0
335	0	0	0
335	0	0	0
336	0	0	0
336	0	0	0
337	0	0	0
337	0	0	0
338	0	0	0
338	0	0	0
338	0	0	0
338	0	0	0
338	0	0	0
339	0	0	0
339	0	0	0
339	0	0	0
339	0	0	0
339	0	0	0
340	0	0	0
340	0	0	0
340	0	0	0
340	0	0	0
340	0	0	0
341	0	0	0
341	0	0	0
341	0	0	0
341	0	0	0
341	0	0	0
342	0	0	0
342	0	0	0
342	0	0	0
342	0	0	0
342	0	0	0
343	0	0	0
343	0	0	0
343	0	0	0
343	0	0	0
343	0	0	0
344	0	0	0
344	0	0	0
344	0	0	0
344	0	0	0
344	0	0	0
345	0	0	0
345	0	0	0
345	0	0	0
345	0	0	0
345	0	0	0
346	0	0	0
346	0	0	0
346	0	0	0
346	0	0	0
346	0	0	0
347	0	0	0
347	0	0	0
347	0	0	0
347	0	0	0
347	0	0	0
348	0	0	0
348	0	0	0
348	0	0	0
348	0	0	0
348	0	0	0
349	0	0	0
349	0	0	0
349	0	0	0
349	0	0	0
349	0	0	0
350	0	0	0
350	0	0	0
350	0	0	0
350	0	0	0
350	0	0	0
351	0	0	0
351	0	0	0
351	0	0	0
351	0	0	0
351	0	0	0
352	0	0	0
352	0	0	0
352	0	0	0
352	0	0	0
352	0	0	0
353	0	0	0
353	0	0	0
353	0	0	0
353	0	0	0
353	0	0	0
354	0	0	0
354	0	0	0
354	0	0	0
354	0	0	0
354	0	0	0
355	0	0	0
355	0	0	0
355	0	0	0
355	0	0	0
355	0	0	0
356	0	0	0
356	0	0	0
357	0	0	0
357	0	0	0
358	0	0	0
358	0	0	0
358	0	0	0
358	0	0	0
358	0	0	0
359	0	0	0
359	0	0	0
359	0	0	0
359	0	0	0
359	0	0	0
360	0	0	0
360	0	0	0
360	0	0	0
360	0	0	0
360	0	0	0
361	0	0	0
361	0	0	0
361	0	0	0
361	0	0	0
361	0	0	0
362	0	0	0
362	0	0	0
362	0	0	0
362	0	0	0
362	0	0	0
363	0	0	0
363	0	0	0
363	0	0	0
363	0	0	0
363	0	0	0
364	0	0	0
364	0	0	0
364	0	0	0
364	0	0	0
364	0	0	0
365	0	0	0
365	0	0	0
365	0	0	0
365	0	0	0
365	0	0	0
366	0	0	0
366	0	0	0
366	0	0	0
366	0	0	0
366	0	0	0
367	0	0	0
367	0	0	0
367	0	0	0
367	0	0	0
367	0	0	0
368	0	0	0
368	0	0	0
368	0	0	0
368	0	0	0
368	0	0	0
369	0	0	0
369	0	0	0
369	0	0	0
369	0	0	0
369	0	0	0
370	0	0	0
370	0	0	0
370	0	0	0
370	0	0	0
370	0	0	0
371	0	0	0
371	0	0	0
371	0	0	0
371	0	0	0
371	0	0	0
372	0	0	0
372	0	0	0
372	0	0	0
372	0	0	0
372	0	0	0
373	0	0	0
373	0	0	0
373	0	0	0
373	0	0	0
373	0	0	0
374	0	0	0
374	0	0	0
374	0	0	0
374	0	0	0
374	0	0	0
375	0	0	0
375	0	0	0
375	0	0	0
375	0	0	0
375	0	0	0
376	0	0	0
376	0	0	0
377	0	0	0
377	0	0	0
378	0	0	0
379	0	0	0
380	0	0	0
381	0	0	0
381	0	0	0
381	0	0	0
381	0	0	0
381	0	0	0
382	0	0	0
382	0	0	0
382	0	0	0
382	0	0	0
382	0	0	0
383	0	0	0
383	0	0	0
383	0	0	0
383	0	0	0
383	0	0	0
384	0	0	0
384	0	0	0
384	0	0	0
384	0	0	0
384	0	0	0
385	0	0	0
385	0	0	0
385	0	0	0
385	0	0	0
385	0	0	0
386	0	0	0
386	0	0	0
386	0	0	0
386	0	0	0
386	0	0	0
387	0	0	0
387	0	0	0
387	0	0	0
387	0	0	0
387	0	0	0
388	0	0	0
388	0	0	0
388	0	0	0
388	0	0	0
388	0	0	0
389	0	0	0
389	0	0	0
389	0	0	0
389	0	0	0
389	0	0	0
390	0	0	0
390	0	0	0
390	0	0	0
390	0	0	0
390	0	0	0
391	0	0	0
391	0	0	0
391	0	0	0
391	0	0	0
391	0	0	0
392	0	0	0
392	0	0	0
392	0	0	0
392	0	0	0
392	0	0	0
393	0	0	0
393	0	0	0
393	0	0	0
393	0	0	0
393	0	0	0
394	0	0	0
394	0	0	0
394	0	0	0
394	0	0	0
394	0	0	0
395	0	0	0
395	0	0	0
395	0	0	0
395	0	0	0
395	0	0	0
396	0	0	0
396	0	0	0
396	0	0	0
396	0	0	0
396	0	0	0
397	0	0	0
397	0	0	0
397	0	0	0
397	0	0	0
397	0	0	0
398	0	0	0
398	0	0	0
398	0	0	0
398	0	0	0
398	0	0	0
399	0	0	0
399	0	0	0
400	0	0	0
400	0	0	0
401	0	0	0
402	0	0	0
403	0	0	0
404	0	0	0
404	0	0	0
404	0	0	0
404	0	0	0
404	0	0	0
405	0	0	0
405	0	0	0
405	0	0	0
405	0	0	0
405	0	0	0
406	0	0	0
406	0	0	0
406	0	0	0
406	0	0	0
406	0	0	0
407	0	0	0
407	0	0	0
407	0	0	0
407	0	0	0
407	0	0	0
408	0	0	0
408	0	0	0
408	0	0	0
408	0	0	0
408	0	0	0
409	0	0	0
409	0	0	0
409	0	0	0
409	0	0	0
409	0	0	0
410	0	0	0
410	0	0	0
410	0	0	0
410	0	0	0
410	0	0	0
411	0	0	0
411	0	0	0
411	0	0	0
411	0	0	0
411	0	0	0
412	0	0	0
412	0	0	0
412	0	0	0
412	0	0	0
412	0	0	0
413	0	0	0
413	0	0	0
413	0	0	0
413	0	0	0
413	0	0	0
414	0	0	0
414	0	0	0
414	0	0	0
414	0	0	0
414	0	0	0
415	0	0	0
415	0	0	0
415	0	0	0
415	0	0	0
415	0	0	0
416	0	0	0
416	0	0	0
416	0	0	0
416	0	0	0
416	0	0	0
417	0	0	0
417	0	0	0
417	0	0	0
417	0	0	0
417	0	0	0
418	0	0	0
418	0	0	0
418	0	0	0
418	0	0	0
418	0	0	0
419	0	0	0
419	0	0	0
419	0	0	0
419	0	0	0
419	0	0	0
420	0	0	0
420	0	0	0
420	0	0	0
420	0	0	0
420	0	0	0
421	0	0	0
421	0	0	0
421	0	0	0
421	0	0	0
421	0	0	0
422	0	0	0
422	0	0	0
423	0	0	0
423	0	0	0
424	0	0	0
424	0	0	0
424	0	0	0
424	0	0	0
424	0	0	0
425	0	0	0
425	0	0	0
425	0	0	0
425	0	0	0
425	0	0	0
426	0	0	0
426	0	0	0
426	0	0	0
426	0	0	0
426	0	0	0
427	0	0	0
427	0	0	0
427	0	0	0
427	0	0	0
427	0	0	0
428	0	0	0
428	0	0	0
428	0	0	0
428	0	0	0
428	0	0	0
429	0	0	0
429	0	0	0
429	0	0	0
429	0	0	0
429	0	0	0
430	0	0	0
430	0	0	0
430	0	0	0
430	0	0	0
430	0	0	0
431	0	0	0
431	0	0	0
431	0	0	0
431	0	0	0
431	0	0	0
432	0	0	0
432	0	0	0
432	0	0	0
432	0	0	0
432	0	0	0
433	0	0	0
433	0	0	0
433	0	0	0
433	0	0	0
433	0	0	0
434	0	0	0
434	0	0	0
434	0	0	0
434	0	0	0
434	0	0	0
435	0	0	0
435	0	0	0
435	0	0	0
435	0	0	0
435	0	0	0
436	0	0	0
436	0	0	0
436	0	0	0
436	0	0	0
436	0	0	0
437	0	0	0
437	0	0	0
437	0	0	0
437	0	0	0
437	0	0	0
438	0	0	0
438	0	0	0
438	0	0	0
438	0	0	0
438	0	0	0
439	0	0	0
439	0	0	0
439	0	0	0
439	0	0	0
439	0	0	0
440	0	0	0
440	0	0	0
440	0	0	0
440	0	0	0
440	0	0	0
441	0	0	0
441	0	0	0
441	0	0	0
441	0	0	0
441	0	0	0
442	0	0	0
442	0	0	0
443	0	0	0
443	0	0	0
444	0	0	0
444	0	0	0
444	0	0	0
444	0	0	0
444	0	0	0
445	0	0	0
445	0	0	0
445	0	0	0
445	0	0	0
445	0	0	0
446	0	0	0
446	0	0	0
446	0	0	0
446	0	0	0
446	0	0	0
447	0	0	0
447	0	0	0
447	0	0	0
447	0	0	0
447	0	0	0
448	0	0	0
448	0	0	0
448	0	0	0
448	0	0	0
448	0	0	0
449	0	0	0
449	0	0	0
449	0	0	0
449	0	0	0
449	0	0	0
450	0	0	0
450	0	0	0
450	0	0	0
450	0	0	0
450	0	0	0
451	0	0	0
451	0	0	0
451	0	0	0
451	0	0	0
451	0	0	0
452	0	0	0
452	0	0	0
452	0	0	0
452	0	0	0
452	0	0	0
453	0	0	0
453	0	0	0
453	0	0	0
453	0	0	0
453	0	0	0
454	0	0	0
454	0	0	0
454	0	0	0
454	0	0	0
454	0	0	0
455	0	0	0
455	0	0	0
455	0	0	0
455	0	0	0
455	0	0	0
456	0	0	0
456	0	0	0
456	0	0	0
456	0	0	0
456	0	0	0
457	0	0	0
457	0	0	0
457	0	0	0
457	0	0	0
457	0	0	0
458	0	0	0
458	0	0	0
458	0	0	0
458	0	0	0
458	0	0	0
459	0	0	0
459	0	0	0
459	0	0	0
459	0	0	0
459	0	0	0
460	0	0	0
460	0	0	0
460	0	0	0
460	0	0	0
460	0	0	0
461	0	0	0
461	0	0	0
461	0	0	0
461	0	0	0
461	0	0	0
462	0	0	0
462	0	0	0
463	0	0	0
463	0	0	0
464	0	0	0
465	0	0	0
466	0	0	0
467	0	0	0
467	0	0	0
468	0	0	0
468	0	0	0
469	0	0	0
469	0	0	0
469	0	0	0
469	0	0	0
469	0	0	0
470	0	0	0
470	0	0	0
470	0	0	0
470	0	0	0
470	0	0	0
471	0	0	0
471	0	0	0
472	0	0	0
472	0	0	0
473	0	0	0
473	0	0	0
474	0	0	0
474	0	0	0
474	0	0	0
474	0	0	0
474	0	0	0
475	0	0	0
475	0	0	0
475	0	0	0
475	0	0	0
475	0	0	0
476	0	0	0
476	0	0	0
477	0	0	0
477	0	0	0
478	0	0	0
478	0	0	0
479	0	0	0
479	0	0	0
479	0	0	0
479	0	0	0
479	0	0	0
480	0	0	0
480	0	0	0
480	0	0	0
480	0	0	0
480	0	0	0
481	0	0	0
481	0	0	0
482	0	0	0
482	0	0	0
483	0	0	0
483	0	0	0
484	0	0	0
484	0	0	0
484	0	0	0
484	0	0	0
484	0	0	0
485	0	0	0
485	0	0	0
485	0	0	0
485	0	0	0
485	0	0	0
486	0	0	0
486	0	0	0
487	0	0	0
487	0	0	0
488	0	0	0
488	0	0	0
489	0	0	0
489	0	0	0
490	0	0	0
490	0	0	0
490	0	0	0
490	0	0	0
490	0	0	0
491	0	0	0
491	0	0	0
491	0	0	0
491	0	0	0
491	0	0	0
492	0	0	0
492	0	0	0
493	0	0	0
493	0	0	0
494	0	0	0
494	0	0	0
495	0	0	0
495	0	0	0
495	0	0	0
495	0	0	0
495	0	0	0
496	0	0	0
496	0	0	0
496	0	0	0
496	0	0	0
496	0	0	0
497	0	0	0
497	0	0	0
498	0	0	0
498	0	0	0
499	0	0	0
499	0	0	0
500	0	0	0
500	0	0	0
500	0	0	0
500	0	0	0
500	0	0	0
501	0	0	0
501	0	0	0
501	0	0	0
501	0	0	0
501	0	0	0
502	0	0	0
502	0	0	0
503	0	0	0
503	0	0	0
504	0	0	0
504	0	0	0
505	0	0	0
505	0	0	0
505	0	0	0
505	0	0	0
505	0	0	0
506	0	0	0
506	0	0	0
506	0	0	0
506	0	0	0
506	0	0	0
507	0	0	0
507	0	0	0
508	0	0	0
508	0	0	0
509	0	0	0
509	0	0	0
510	0	0	0
510	0	0	0
511	0	0	0
511	0	0	0
511	0	0	0
511	0	0	0
511	0	0	0
512	0	0	0
512	0	0	0
512	0	0	0
512	0	0	0
512	0	0	0
513	0	0	0
513	0	0	0
514	0	0	0
514	0	0	0
515	0	0	0
515	0	0	0
516	0	0	0
516	0	0	0
516	0	0	0
516	0	0	0
516	0	0	0
517	0	0	0
517	0	0	0
517	0	0	0
517	0	0	0
517	0	0	0
518	0	0	0
518	0	0	0
519	0	0	0
519	0	0	0
520	0	0	0
520	0	0	0
521	0	0	0
521	0	0	0
521	0	0	0
521	0	0	0
521	0	0	0
522	0	0	0
522	0	0	0
522	0	0	0
522	0	0	0
522	0	0	0
523	0	0	0
523	0	0	0
524	0	0	0
524	0	0	0
525	0	0	0
525	0	0	0
526	0	0	0
526	0	0	0
526	0	0	0
526	0	0	0
526	0	0	0
527	0	0	0
527	0	0	0
527	0	0	0
527	0	0	0
527	0	0	0
528	0	0	0
528	0	0	0
529	0	0	0
529	0	0	0
530	0	0	0
530	0	0	0
531	0	0	0
531	0	0	0
532	0	0	0
532	0	0	0
532	0	0	0
532	0	0	0
532	0	0	0
533	0	0	0
533	0	0	0
533	0	0	0
533	0	0	0
533	0	0	0
534	0	0	0
534	0	0	0
535	0	0	0
535	0	0	0
536	0	0	0
536	0	0	0
537	0	0	0
537	0	0	0
537	0	0	0
537	0	0	0
537	0	0	0
538	0	0	0
538	0	0	0
538	0	0	0
538	0	0	0
538	0	0	0
539	0	0	0
539	0	0	0
540	0	0	0
540	0	0	0
541	0	0	0
541	0	0	0
542	0	0	0
542	0	0	0
542	0	0	0
542	0	0	0
542	0	0	0
543	0	0	0
543	0	0	0
543	0	0	0
543	0	0	0
543	0	0	0
544	0	0	0
544	0	0	0
545	0	0	0
545	0	0	0
546	0	0	0
546	0	0	0
547	0	0	0
547	0	0	0
547	0	0	0
547	0	0	0
547	0	0	0
548	0	0	0
548	0	0	0
548	0	0	0
548	0	0	0
548	0	0	0
549	0	0	0
549	0	0	0
550	0	0	0
550	0	0	0
551	0	0	0
552	0	0	1
553	0	0	0
554	0	0	1
555	0	0	0
556	0	0	1
557	0	0	0
558	0	0	1
559	0	0	0
560	0	0	1
561	0	0	0
562	0	0	1
563	0	0	0
564	0	0	1
565	0	0	0
566	0	0	1
567	0	0	0
568	0	0	1
569	0	0	0
570	0	0	1
571	0	0	0
572	0	0	1
573	0	0	0
574	0	0	1
575	0	0	0
576	0	0	1
577	0	0	0
578	0	0	1
579	0	0	0
580	0	0	1
581	0	0	0
582	0	0	1
583	0	0	0
584	0	0	1
585	0	0	0
586	0	0	1
587	0	0	0
588	0	0	1
589	0	0	0
590	0	0	1
591	0	0	0
592	0	0	1
593	0	0	0
594	0	0	1
595	0	0	0
596	0	0	1
597	0	0	0
598	0	0	1
599	0	0	0
600	0	0	1
601	0	0	0
602	0	0	1
603	0	0	0
604	0	0	1
605	0	0	0
606	0	0	1
607	0	0	0
608	0	0	1
609	0	0	0
610	0	0	1
611	0	0	0
612	0	0	1
613	0	0	0
614	0	0	1
615	0	0	0
616	0	0	1
617	0	0	0
618	0	0	1
619	0	0	0
620	0	0	1
621	0	0	0
622	0	0	1
623	0	0	0
624	0	0	1
625	0	0	0
626	0	0	1
627	0	0	0
628	0	0	1
629	0	0	0
630	0	0	1
631	0	0	0
632	0	0	0
633	0	0	1
634	0	0	0
635	0	0	1
636	0	0	0
637	0	0	1
638	0	0	0
639	0	0	1
640	0	0	0
641	0	0	1
642	0	0	0
643	0	0	1
644	0	0	0
645	0	0	1
646	0	0	0
647	0	0	1
648	0	0	0
649	0	0	0
650	0	0	1
651	0	0	0
652	0	0	1
653	0	0	0
654	0	0	1
655	0	0	0
656	0	0	1
657	0	0	0
658	0	0	1
659	0	0	0
660	0	0	1
661	0	0	0
662	0	0	1
663	0	0	0
664	0	0	1
665	0	0	0
666	0	0	0
667	0	0	1
668	0	0	0
669	0	0	1
670	0	0	0
671	0	0	1
672	0	0	0
673	0	0	1
674	0	0	0
675	0	0	1
676	0	0	0
677	0	0	1
678	0	0	0
679	0	0	1
680	0	0	0
681	0	0	1
682	0	0	0
683	0	0	0
684	0	0	1
685	0	0	0
686	0	0	1
687	0	0	0
688	0	0	1
689	0	0	0
690	0	0	1
691	0	0	0
692	0	0	1
693	0	0	0
694	0	0	1
695	0	0	0
696	0	0	1
697	0	0	0
698	0	0	1
699	0	0	0
700	0	0	0
701	0	0	1
702	0	0	0
703	0	0	1
704	0	0	0
705	0	0	1
706	0	0	0
707	0	0	1
708	0	0	0
709	0	0	1
710	0	0	0
711	0	0	1
712	0	0	0
713	0	0	1
714	0	0	0
715	0	0	1
716	0	0	0
717	0	0	1
718	0	0	0
719	0	0	1
720	0	0	0
721	0	0	1
722	0	0	0
723	0	0	1
724	0	0	0
725	0	0	1
726	0	0	0
727	0	0	1
728	0	0	0
729	0	0	1
730	0	0	0
731	0	0	1
732	0	0	0
733	0	0	1
734	0	0	0
735	0	0	1
736	0	0	0
737	0	0	1
738	0	0	0
739	0	0	1
740	0	0	0
741	0	0	1
742	0	0	0
743	0	0	1
744	0	0	0
745	0	0	1
746	0	0	0
747	0	0	1
748	0	0	0
749	0	0	0
750	0	0	1
751	0	0	0
752	0	0	1
753	0	0	0
754	0	0	1
755	0	0	0
756	0	0	1
757	0	0	0
758	0	0	1
759	0	0	0
760	0	0	1
761	0	0	0
762	0	0	1
763	0	0	0
764	0	0	1
765	0	0	0
766	0	0	0
767	0	0	1
768	0	0	0
769	0	0	1
770	0	0	0
771	0	0	1
772	0	0	0
773	0	0	1
774	0	0	0
775	0	0	1
776	0	0	0
777	0	0	1
778	0	0	0
779	0	0	1
780	0	0	0
781	0	0	1
782	0	0	0
783	0	0	0
784	0	0	1
785	0	0	0
786	0	0	1
787	0	0	0
788	0	0	1
789	0	0	0
790	0	0	1
791	0	0	0
792	0	0	1
793	0	0	0
794	0	0	1
795	0	0	0
796	0	0	1
797	0	0	0
798	0	0	1
799	0	0	0
800	0	0	1
801	0	0	0
802	0	0	1
803	0	0	0
804	0	0	1
805	0	0	0
806	0	0	1
807	0	0	0
808	0	0	1
809	0	0	0
810	0	0	1
811	0	0	0
812	0	0	1
813	0	0	0
814	0	0	1
815	0	0	0
816	0	0	1
817	0	0	0
818	0	0	1
819	0	0	0
820	0	0	1
821	0	0	0
822	0	0	1
823	0	0	0
824	0	0	1
825	0	0	0
826	0	0	1
827	0	0	0
828	0	0	1
829	0	0	0
830	0	0	1
831	0	0	0
832	0	0	0
833	0	0	1
834	0	0	0
835	0	0	1
836	0	0	0
837	0	0	1
838	0	0	0
839	0	0	1
840	0	0	0
841	0	0	1
842	0	0	0
843	0	0	1
844	0	0	0
845	0	0	1
846	0	0	0
847	0	0	1
848	0	0	0
849	0	0	0
850	0	0	1
851	0	0	0
852	0	0	1
853	0	0	0
854	0	0	1
855	0	0	0
856	0	0	1
857	0	0	0
858	0	0	1
859	0	0	0
860	0	0	1
861	0	0	0
862	0	0	1
863	0	0	0
864	0	0	1
865	0	0	0
866	0	0	0
867	0	0	1
868	0	0	0
869	0	0	1
870	0	0	0
871	0	0	1
872	0	0	0
873	0	0	1
874	0	0	0
875	0	0	1
876	0	0	0
877	0	0	1
878	0	0	0
879	0	0	1
880	0	0	0
881	0	0	1
882	0	0	0
883	0	0	1
884	0	0	0
885	0	0	1
886	0	0	0
887	0	0	1
888	0	0	0
889	0	0	1
890	0	0	0
891	0	0	1
892	0	0	0
893	0	0	1
894	0	0	0
895	0	0	1
896	0	0	0
897	0	0	1
898	0	0	0
899	0	0	0
900	0	0	1
901	0	0	0
902	0	0	1
903	0	0	0
904	0	0	1
905	0	0	0
906	0	0	1
907	0	0	0
908	0	0	1
909	0	0	0
910	0	0	1
911	0	0	0
912	0	0	1
913	0	0	0
914	0	0	1
915	0	0	0

