file 10210545 1736028780                                        
version 3
run DL-0-20250104-19:12:51-82675
attr configname DL
attr datetime 20250104-19:12:51
attr datetimef 20250104-191251
attr experiment DL
attr inifile omnetppTest.ini
attr iterationvars ""
attr iterationvarsd ""
attr iterationvarsf ""
attr measurement ""
attr network TimeSyncUEUE
attr processid 82675
attr repetition 0
attr replication #0
attr resultdir results
attr runnumber 0
attr seedset 0
config image-path ../../../inet4.5-2/images
config *.TsnSwitchDataNetwork.gptp.gptpNodeType "\"MASTER_NODE\""
config *.TsnSwitchDataNetwork.gptp.masterPorts "[\"eth0\"]"
config *.TsnSwitchDataNetwork.gptp.slavePort "\"\""
config *.TsnSwitchDomain1.gptp.slavePort "\"eth0\""
config *.TsnSwitchDomain1.gptp.masterPorts []
config *.TsnSwitchDomain2.gptp.slavePort "\"eth0\""
config *.TsnSwitchDomain2.gptp.masterPorts []
config *.FGS.nwtt[*].gptp.domain[*].slavePort "\"eth0\""
config *.FGS.nwtt[*].gptp.domain[*].masterPorts "[\"tt0\"]"
config *.FGS.dstt[*].gptp.domain[*].slavePort "\"tt0\""
config *.FGS.dstt[*].gptp.domain[*].masterPorts "[\"eth0\"]"
config **.referenceClock "\"TsnSwitchDataNetwork.clock\""
config *.TsnSwitchDataNetwork.clock.displayStringTextFormat "\"time: %T\""
config *.TsnSwitchDomain1.clock.displayStringTextFormat "\"diff: %d\""
config *.TsnSwitchDomain2.clock.displayStringTextFormat "\"diff: %d\""
config network TimeSyncUEUE
config sim-time-limit 100s
config *.histogramContainer.histograms "{s1UL: \"../../../deterministic6g_data/PD-Wireless-5G-1/s1-UL_wall.xml\",\n\t\t\t\t\t\t\t\t\ts3UL: \"../../../deterministic6g_data/PD-Wireless-5G-1/s3-UL_wall.xml\",\n\t\t\t\t\t\t\t\t\ts4UL: \"../../../deterministic6g_data/PD-Wireless-5G-1/s4-UL_wall.xml\",\n\t\t\t\t\t\t\t\t\ts6UL: \"../../../deterministic6g_data/PD-Wireless-5G-1/s6-UL_wall.xml\",\n\t\t\t\t\t\t\t\t\ts7UL: \"../../../deterministic6g_data/PD-Wireless-5G-1/s7-UL_wall.xml\",\n\t\t\t\t\t\t\t\t\ts8UL: \"../../../deterministic6g_data/PD-Wireless-5G-1/s8-UL_wall.xml\",\n\t\t\t\t\t\t\t\t\ts9UL: \"../../../deterministic6g_data/PD-Wireless-5G-1/s9-UL_wall.xml\",\n\t\t\t\t\t\t\t\t\ts10DL: \"../../../deterministic6g_data/PD-Wireless-5G-1/s10-DL_wall.xml\",\n\t\t\t\t\t\t\t\t\ts19DL: \"../../../deterministic6g_data/PD-Wireless-5G-1/s19-DL_wall.xml\",\n\t\t\t\t\t\t\t\t\ts20UL: \"../../../deterministic6g_data/PD-Wireless-5G-1/s20-UL_wall.xml\",\n\t\t\t\t\t\t\t\t\ts22UL: \"../../../deterministic6g_data/PD-Wireless-5G-1/s22-UL_wall.xml\",\n\t\t\t\t\t\t\t\t\ts23DL: \"../../../deterministic6g_data/PD-Wireless-5G-1/s23-DL_wall.xml\",\n\t\t\t\t\t\t\t\t\ts24UL: \"../../../deterministic6g_data/PD-Wireless-5G-1/s24-UL_wall.xml\",\n\t\t\t\t\t\t\t\t\ts25DL: \"../../../deterministic6g_data/PD-Wireless-5G-1/s25-DL_wall.xml\",\n\t\t\t\t\t\t\t\t\ts26UL: \"../../../deterministic6g_data/PD-Wireless-5G-1/s26-UL_wall.xml\"}"
config *.FGS.d*.delayUplink "rngProvider(\"histogramContainer\",\"s1UL\")"
config *.FGS.n*.delayDownlink "rngProvider(\"histogramContainer\",\"s10DL\")"
config *.FGS.d*.delayD2D "rngProvider(\"histogramContainer\",\"s1UL\")+rngProvider(\"histogramContainer\",\"s10DL\")"
config *.**.hasTimeSynchronization true
config *.visualizer.typename IntegratedMultiCanvasVisualizer
config *.visualizer.infoVisualizer[*].displayInfos true
config *.visualizer.dataLinkVisualizer[0].displayLinks true
config *.visualizer.dataLinkVisualizer[0].activityLevel "\"protocol\""
config *.visualizer.dataLinkVisualizer[0].packetFilter "\"GptpSync\""
config *.visualizer.dataLinkVisualizer[0].lineColor "\"blue2\""
config *.visualizer.numInfoVisualizers 3
config *.visualizer.infoVisualizer[0].modules "\"*.TsnSwitchDataNetwork.clock\""
config *.visualizer.infoVisualizer[1].modules "\"*.TsnSwitchDomain1.clock\""
config *.visualizer.infoVisualizer[1].placementHint "\"topLeft\""
config *.visualizer.infoVisualizer[2].modules "\"*.TsnSwitchDomain2*.clock\""
config *.visualizer.infoVisualizer[2].placementHint "\"topRight\""

vector 0 TimeSyncUEUE.TsnSwitchDomain1.eth[0].macLayer.queue queueLength:vector ETV
attr autoWarmupFilter false
attr interpolationmode sample-hold
attr recordingmode vector
attr source "warmup(atomic(constant0(packetPushEnded) + count(packetPushStarted) - count(packetPulled) - count(packetRemoved) - count(packetDropped)))"
attr title "queue length"
attr unit pk
vector 1 TimeSyncUEUE.TsnSwitchDomain1.eth[0].macLayer.queue queueBitLength:vector ETV
attr autoWarmupFilter false
attr interpolationmode sample-hold
attr recordingmode vector
attr source "warmup(atomic(constant0(packetPushEnded) + sum(packetLength(packetPushStarted)) - sum(packetLength(packetPulled)) - sum(packetLength(packetRemoved)) - sum(packetLength(packetDropped))))"
attr title "queue bit length"
attr unit b
vector 2 TimeSyncUEUE.TsnSwitchDomain1.eth[0].phyLayer.interFrameGapInserter interpacketGap:vector ETV
attr interpolationmode sample-hold
attr recordingmode vector
attr source "count(interpacketGapStarted) - count(interpacketGapEnded)"
attr title "interpacket gap state"
attr type int
vector 3 TimeSyncUEUE.TsnSwitchDomain1.eth[0].phyLayer.transmitter transmitting:vector ETV
attr interpolationmode sample-hold
attr recordingmode vector
attr source "count(transmissionStarted) - count(transmissionEnded)"
attr title "transmitting state"
attr type int
vector 4 TimeSyncUEUE.TsnSwitchDomain1.udp passedUpPk:vector(count) ETV
attr interpolationmode none
attr recordingmode vector(count)
attr source packetSentToUpper
attr title "packets passed up, count"
vector 5 TimeSyncUEUE.TsnSwitchDomain1.udp droppedPkWrongPort:vector(count) ETV
attr interpolationmode none
attr recordingmode vector(count)
attr source packetDropReasonIsNoPortFound(packetDropped)
attr title "packets dropped (wrong port), count"
vector 6 TimeSyncUEUE.TsnSwitchDomain1.udp droppedPkBadChecksum:vector(count) ETV
attr interpolationmode none
attr recordingmode vector(count)
attr source packetDropReasonIsIncorrectlyReceived(packetDropped)
attr title "packets dropped (checksum error), count"
vector 7 TimeSyncUEUE.TsnSwitchDomain2.eth[0].macLayer.queue queueLength:vector ETV
attr autoWarmupFilter false
attr interpolationmode sample-hold
attr recordingmode vector
attr source "warmup(atomic(constant0(packetPushEnded) + count(packetPushStarted) - count(packetPulled) - count(packetRemoved) - count(packetDropped)))"
attr title "queue length"
attr unit pk
vector 8 TimeSyncUEUE.TsnSwitchDomain2.eth[0].macLayer.queue queueBitLength:vector ETV
attr autoWarmupFilter false
attr interpolationmode sample-hold
attr recordingmode vector
attr source "warmup(atomic(constant0(packetPushEnded) + sum(packetLength(packetPushStarted)) - sum(packetLength(packetPulled)) - sum(packetLength(packetRemoved)) - sum(packetLength(packetDropped))))"
attr title "queue bit length"
attr unit b
vector 9 TimeSyncUEUE.TsnSwitchDomain2.eth[0].phyLayer.interFrameGapInserter interpacketGap:vector ETV
attr interpolationmode sample-hold
attr recordingmode vector
attr source "count(interpacketGapStarted) - count(interpacketGapEnded)"
attr title "interpacket gap state"
attr type int
vector 10 TimeSyncUEUE.TsnSwitchDomain2.eth[0].phyLayer.transmitter transmitting:vector ETV
attr interpolationmode sample-hold
attr recordingmode vector
attr source "count(transmissionStarted) - count(transmissionEnded)"
attr title "transmitting state"
attr type int
vector 11 TimeSyncUEUE.TsnSwitchDomain2.udp passedUpPk:vector(count) ETV
attr interpolationmode none
attr recordingmode vector(count)
attr source packetSentToUpper
attr title "packets passed up, count"
vector 12 TimeSyncUEUE.TsnSwitchDomain2.udp droppedPkWrongPort:vector(count) ETV
attr interpolationmode none
attr recordingmode vector(count)
attr source packetDropReasonIsNoPortFound(packetDropped)
attr title "packets dropped (wrong port), count"
vector 13 TimeSyncUEUE.TsnSwitchDomain2.udp droppedPkBadChecksum:vector(count) ETV
attr interpolationmode none
attr recordingmode vector(count)
attr source packetDropReasonIsIncorrectlyReceived(packetDropped)
attr title "packets dropped (checksum error), count"
vector 14 TimeSyncUEUE.TsnSwitchDataNetwork.eth[0].macLayer.queue queueLength:vector ETV
attr autoWarmupFilter false
attr interpolationmode sample-hold
attr recordingmode vector
attr source "warmup(atomic(constant0(packetPushEnded) + count(packetPushStarted) - count(packetPulled) - count(packetRemoved) - count(packetDropped)))"
attr title "queue length"
attr unit pk
vector 15 TimeSyncUEUE.TsnSwitchDataNetwork.eth[0].macLayer.queue queueBitLength:vector ETV
attr autoWarmupFilter false
attr interpolationmode sample-hold
attr recordingmode vector
attr source "warmup(atomic(constant0(packetPushEnded) + sum(packetLength(packetPushStarted)) - sum(packetLength(packetPulled)) - sum(packetLength(packetRemoved)) - sum(packetLength(packetDropped))))"
attr title "queue bit length"
attr unit b
vector 16 TimeSyncUEUE.TsnSwitchDataNetwork.eth[0].phyLayer.interFrameGapInserter interpacketGap:vector ETV
attr interpolationmode sample-hold
attr recordingmode vector
attr source "count(interpacketGapStarted) - count(interpacketGapEnded)"
attr title "interpacket gap state"
attr type int
vector 17 TimeSyncUEUE.TsnSwitchDataNetwork.eth[0].phyLayer.transmitter transmitting:vector ETV
attr interpolationmode sample-hold
attr recordingmode vector
attr source "count(transmissionStarted) - count(transmissionEnded)"
attr title "transmitting state"
attr type int
vector 18 TimeSyncUEUE.TsnSwitchDataNetwork.udp passedUpPk:vector(count) ETV
attr interpolationmode none
attr recordingmode vector(count)
attr source packetSentToUpper
attr title "packets passed up, count"
vector 19 TimeSyncUEUE.TsnSwitchDataNetwork.udp droppedPkWrongPort:vector(count) ETV
attr interpolationmode none
attr recordingmode vector(count)
attr source packetDropReasonIsNoPortFound(packetDropped)
attr title "packets dropped (wrong port), count"
vector 20 TimeSyncUEUE.TsnSwitchDataNetwork.udp droppedPkBadChecksum:vector(count) ETV
attr interpolationmode none
attr recordingmode vector(count)
attr source packetDropReasonIsIncorrectlyReceived(packetDropped)
attr title "packets dropped (checksum error), count"
vector 21 TimeSyncUEUE.FGS.dstt[0].eth[0].macLayer.queue queueLength:vector ETV
attr autoWarmupFilter false
attr interpolationmode sample-hold
attr recordingmode vector
attr source "warmup(atomic(constant0(packetPushEnded) + count(packetPushStarted) - count(packetPulled) - count(packetRemoved) - count(packetDropped)))"
attr title "queue length"
attr unit pk
vector 22 TimeSyncUEUE.FGS.dstt[0].eth[0].macLayer.queue queueBitLength:vector ETV
attr autoWarmupFilter false
attr interpolationmode sample-hold
attr recordingmode vector
attr source "warmup(atomic(constant0(packetPushEnded) + sum(packetLength(packetPushStarted)) - sum(packetLength(packetPulled)) - sum(packetLength(packetRemoved)) - sum(packetLength(packetDropped))))"
attr title "queue bit length"
attr unit b
vector 23 TimeSyncUEUE.FGS.dstt[0].eth[0].phyLayer.interFrameGapInserter interpacketGap:vector ETV
attr interpolationmode sample-hold
attr recordingmode vector
attr source "count(interpacketGapStarted) - count(interpacketGapEnded)"
attr title "interpacket gap state"
attr type int
vector 24 TimeSyncUEUE.FGS.dstt[0].eth[0].phyLayer.transmitter transmitting:vector ETV
attr interpolationmode sample-hold
attr recordingmode vector
attr source "count(transmissionStarted) - count(transmissionEnded)"
attr title "transmitting state"
attr type int
vector 25 TimeSyncUEUE.FGS.dstt[0].tt[0].macLayer.queue queueLength:vector ETV
attr autoWarmupFilter false
attr interpolationmode sample-hold
attr recordingmode vector
attr source "warmup(atomic(constant0(packetPushEnded) + count(packetPushStarted) - count(packetPulled) - count(packetRemoved) - count(packetDropped)))"
attr title "queue length"
attr unit pk
vector 26 TimeSyncUEUE.FGS.dstt[0].tt[0].macLayer.queue queueBitLength:vector ETV
attr autoWarmupFilter false
attr interpolationmode sample-hold
attr recordingmode vector
attr source "warmup(atomic(constant0(packetPushEnded) + sum(packetLength(packetPushStarted)) - sum(packetLength(packetPulled)) - sum(packetLength(packetRemoved)) - sum(packetLength(packetDropped))))"
attr title "queue bit length"
attr unit b
vector 27 TimeSyncUEUE.FGS.dstt[0].tt[0].phyLayer.interFrameGapInserter interpacketGap:vector ETV
attr interpolationmode sample-hold
attr recordingmode vector
attr source "count(interpacketGapStarted) - count(interpacketGapEnded)"
attr title "interpacket gap state"
attr type int
vector 28 TimeSyncUEUE.FGS.dstt[0].tt[0].phyLayer.transmitter transmitting:vector ETV
attr interpolationmode sample-hold
attr recordingmode vector
attr source "count(transmissionStarted) - count(transmissionEnded)"
attr title "transmitting state"
attr type int
vector 29 TimeSyncUEUE.FGS.dstt[0].tt[1].macLayer.queue queueLength:vector ETV
attr autoWarmupFilter false
attr interpolationmode sample-hold
attr recordingmode vector
attr source "warmup(atomic(constant0(packetPushEnded) + count(packetPushStarted) - count(packetPulled) - count(packetRemoved) - count(packetDropped)))"
attr title "queue length"
attr unit pk
vector 30 TimeSyncUEUE.FGS.dstt[0].tt[1].macLayer.queue queueBitLength:vector ETV
attr autoWarmupFilter false
attr interpolationmode sample-hold
attr recordingmode vector
attr source "warmup(atomic(constant0(packetPushEnded) + sum(packetLength(packetPushStarted)) - sum(packetLength(packetPulled)) - sum(packetLength(packetRemoved)) - sum(packetLength(packetDropped))))"
attr title "queue bit length"
attr unit b
vector 31 TimeSyncUEUE.FGS.dstt[0].tt[1].phyLayer.interFrameGapInserter interpacketGap:vector ETV
attr interpolationmode sample-hold
attr recordingmode vector
attr source "count(interpacketGapStarted) - count(interpacketGapEnded)"
attr title "interpacket gap state"
attr type int
vector 32 TimeSyncUEUE.FGS.dstt[0].tt[1].phyLayer.transmitter transmitting:vector ETV
attr interpolationmode sample-hold
attr recordingmode vector
attr source "count(transmissionStarted) - count(transmissionEnded)"
attr title "transmitting state"
attr type int
vector 33 TimeSyncUEUE.FGS.dstt[1].eth[0].macLayer.queue queueLength:vector ETV
attr autoWarmupFilter false
attr interpolationmode sample-hold
attr recordingmode vector
attr source "warmup(atomic(constant0(packetPushEnded) + count(packetPushStarted) - count(packetPulled) - count(packetRemoved) - count(packetDropped)))"
attr title "queue length"
attr unit pk
vector 34 TimeSyncUEUE.FGS.dstt[1].eth[0].macLayer.queue queueBitLength:vector ETV
attr autoWarmupFilter false
attr interpolationmode sample-hold
attr recordingmode vector
attr source "warmup(atomic(constant0(packetPushEnded) + sum(packetLength(packetPushStarted)) - sum(packetLength(packetPulled)) - sum(packetLength(packetRemoved)) - sum(packetLength(packetDropped))))"
attr title "queue bit length"
attr unit b
vector 35 TimeSyncUEUE.FGS.dstt[1].eth[0].phyLayer.interFrameGapInserter interpacketGap:vector ETV
attr interpolationmode sample-hold
attr recordingmode vector
attr source "count(interpacketGapStarted) - count(interpacketGapEnded)"
attr title "interpacket gap state"
attr type int
vector 36 TimeSyncUEUE.FGS.dstt[1].eth[0].phyLayer.transmitter transmitting:vector ETV
attr interpolationmode sample-hold
attr recordingmode vector
attr source "count(transmissionStarted) - count(transmissionEnded)"
attr title "transmitting state"
attr type int
vector 37 TimeSyncUEUE.FGS.dstt[1].tt[0].macLayer.queue queueLength:vector ETV
attr autoWarmupFilter false
attr interpolationmode sample-hold
attr recordingmode vector
attr source "warmup(atomic(constant0(packetPushEnded) + count(packetPushStarted) - count(packetPulled) - count(packetRemoved) - count(packetDropped)))"
attr title "queue length"
attr unit pk
vector 38 TimeSyncUEUE.FGS.dstt[1].tt[0].macLayer.queue queueBitLength:vector ETV
attr autoWarmupFilter false
attr interpolationmode sample-hold
attr recordingmode vector
attr source "warmup(atomic(constant0(packetPushEnded) + sum(packetLength(packetPushStarted)) - sum(packetLength(packetPulled)) - sum(packetLength(packetRemoved)) - sum(packetLength(packetDropped))))"
attr title "queue bit length"
attr unit b
vector 39 TimeSyncUEUE.FGS.dstt[1].tt[0].phyLayer.interFrameGapInserter interpacketGap:vector ETV
attr interpolationmode sample-hold
attr recordingmode vector
attr source "count(interpacketGapStarted) - count(interpacketGapEnded)"
attr title "interpacket gap state"
attr type int
vector 40 TimeSyncUEUE.FGS.dstt[1].tt[0].phyLayer.transmitter transmitting:vector ETV
attr interpolationmode sample-hold
attr recordingmode vector
attr source "count(transmissionStarted) - count(transmissionEnded)"
attr title "transmitting state"
attr type int
vector 41 TimeSyncUEUE.FGS.dstt[1].tt[1].macLayer.queue queueLength:vector ETV
attr autoWarmupFilter false
attr interpolationmode sample-hold
attr recordingmode vector
attr source "warmup(atomic(constant0(packetPushEnded) + count(packetPushStarted) - count(packetPulled) - count(packetRemoved) - count(packetDropped)))"
attr title "queue length"
attr unit pk
vector 42 TimeSyncUEUE.FGS.dstt[1].tt[1].macLayer.queue queueBitLength:vector ETV
attr autoWarmupFilter false
attr interpolationmode sample-hold
attr recordingmode vector
attr source "warmup(atomic(constant0(packetPushEnded) + sum(packetLength(packetPushStarted)) - sum(packetLength(packetPulled)) - sum(packetLength(packetRemoved)) - sum(packetLength(packetDropped))))"
attr title "queue bit length"
attr unit b
vector 43 TimeSyncUEUE.FGS.dstt[1].tt[1].phyLayer.interFrameGapInserter interpacketGap:vector ETV
attr interpolationmode sample-hold
attr recordingmode vector
attr source "count(interpacketGapStarted) - count(interpacketGapEnded)"
attr title "interpacket gap state"
attr type int
vector 44 TimeSyncUEUE.FGS.dstt[1].tt[1].phyLayer.transmitter transmitting:vector ETV
attr interpolationmode sample-hold
attr recordingmode vector
attr source "count(transmissionStarted) - count(transmissionEnded)"
attr title "transmitting state"
attr type int
vector 45 TimeSyncUEUE.FGS.nwtt[0].eth[0].macLayer.queue queueLength:vector ETV
attr autoWarmupFilter false
attr interpolationmode sample-hold
attr recordingmode vector
attr source "warmup(atomic(constant0(packetPushEnded) + count(packetPushStarted) - count(packetPulled) - count(packetRemoved) - count(packetDropped)))"
attr title "queue length"
attr unit pk
vector 46 TimeSyncUEUE.FGS.nwtt[0].eth[0].macLayer.queue queueBitLength:vector ETV
attr autoWarmupFilter false
attr interpolationmode sample-hold
attr recordingmode vector
attr source "warmup(atomic(constant0(packetPushEnded) + sum(packetLength(packetPushStarted)) - sum(packetLength(packetPulled)) - sum(packetLength(packetRemoved)) - sum(packetLength(packetDropped))))"
attr title "queue bit length"
attr unit b
vector 47 TimeSyncUEUE.FGS.nwtt[0].eth[0].phyLayer.interFrameGapInserter interpacketGap:vector ETV
attr interpolationmode sample-hold
attr recordingmode vector
attr source "count(interpacketGapStarted) - count(interpacketGapEnded)"
attr title "interpacket gap state"
attr type int
vector 48 TimeSyncUEUE.FGS.nwtt[0].eth[0].phyLayer.transmitter transmitting:vector ETV
attr interpolationmode sample-hold
attr recordingmode vector
attr source "count(transmissionStarted) - count(transmissionEnded)"
attr title "transmitting state"
attr type int
vector 49 TimeSyncUEUE.FGS.nwtt[0].tt[0].macLayer.queue queueLength:vector ETV
attr autoWarmupFilter false
attr interpolationmode sample-hold
attr recordingmode vector
attr source "warmup(atomic(constant0(packetPushEnded) + count(packetPushStarted) - count(packetPulled) - count(packetRemoved) - count(packetDropped)))"
attr title "queue length"
attr unit pk
vector 50 TimeSyncUEUE.FGS.nwtt[0].tt[0].macLayer.queue queueBitLength:vector ETV
attr autoWarmupFilter false
attr interpolationmode sample-hold
attr recordingmode vector
attr source "warmup(atomic(constant0(packetPushEnded) + sum(packetLength(packetPushStarted)) - sum(packetLength(packetPulled)) - sum(packetLength(packetRemoved)) - sum(packetLength(packetDropped))))"
attr title "queue bit length"
attr unit b
vector 51 TimeSyncUEUE.FGS.nwtt[0].tt[0].phyLayer.interFrameGapInserter interpacketGap:vector ETV
attr interpolationmode sample-hold
attr recordingmode vector
attr source "count(interpacketGapStarted) - count(interpacketGapEnded)"
attr title "interpacket gap state"
attr type int
vector 52 TimeSyncUEUE.FGS.nwtt[0].tt[0].phyLayer.transmitter transmitting:vector ETV
attr interpolationmode sample-hold
attr recordingmode vector
attr source "count(transmissionStarted) - count(transmissionEnded)"
attr title "transmitting state"
attr type int
vector 53 TimeSyncUEUE.FGS.nwtt[0].tt[1].macLayer.queue queueLength:vector ETV
attr autoWarmupFilter false
attr interpolationmode sample-hold
attr recordingmode vector
attr source "warmup(atomic(constant0(packetPushEnded) + count(packetPushStarted) - count(packetPulled) - count(packetRemoved) - count(packetDropped)))"
attr title "queue length"
attr unit pk
vector 54 TimeSyncUEUE.FGS.nwtt[0].tt[1].macLayer.queue queueBitLength:vector ETV
attr autoWarmupFilter false
attr interpolationmode sample-hold
attr recordingmode vector
attr source "warmup(atomic(constant0(packetPushEnded) + sum(packetLength(packetPushStarted)) - sum(packetLength(packetPulled)) - sum(packetLength(packetRemoved)) - sum(packetLength(packetDropped))))"
attr title "queue bit length"
attr unit b
vector 55 TimeSyncUEUE.FGS.nwtt[0].tt[1].phyLayer.interFrameGapInserter interpacketGap:vector ETV
attr interpolationmode sample-hold
attr recordingmode vector
attr source "count(interpacketGapStarted) - count(interpacketGapEnded)"
attr title "interpacket gap state"
attr type int
vector 56 TimeSyncUEUE.FGS.nwtt[0].tt[1].phyLayer.transmitter transmitting:vector ETV
attr interpolationmode sample-hold
attr recordingmode vector
attr source "count(transmissionStarted) - count(transmissionEnded)"
attr title "transmitting state"
attr type int
vector 57 TimeSyncUEUE.TsnSwitchDomain1.clock timeChanged:vector ETV
attr interpolationmode linear
attr recordingmode vector
attr title "Clock time"
vector 58 TimeSyncUEUE.TsnSwitchDomain2.clock timeChanged:vector ETV
attr interpolationmode linear
attr recordingmode vector
attr title "Clock time"
vector 59 TimeSyncUEUE.TsnSwitchDataNetwork.clock timeChanged:vector ETV
attr interpolationmode linear
attr recordingmode vector
attr title "Clock time"
vector 60 TimeSyncUEUE.FGS.dstt[0].clock timeChanged:vector ETV
attr interpolationmode linear
attr recordingmode vector
attr title "Clock time"
vector 61 TimeSyncUEUE.FGS.dstt[1].clock timeChanged:vector ETV
attr interpolationmode linear
attr recordingmode vector
attr title "Clock time"
vector 62 TimeSyncUEUE.FGS.nwtt[0].clock timeChanged:vector ETV
attr interpolationmode linear
attr recordingmode vector
attr title "Clock time"
vector 63 TimeSyncUEUE.TsnSwitchDomain1.ethernet.macHeaderInserter incomingPacketLengths:vector ETV
attr interpolationmode none
attr recordingmode vector
attr source "packetLength(merge(packetPushedIn, packetPulledIn))"
attr title "incoming packet lengths"
attr unit b
vector 64 TimeSyncUEUE.TsnSwitchDomain1.ethernet.macHeaderInserter outgoingPacketLengths:vector ETV
attr interpolationmode none
attr recordingmode vector
attr source "packetLength(merge(packetPushedOut, packetPulledOut))"
attr title "outgoing packet lengths"
attr unit b
vector 65 TimeSyncUEUE.TsnSwitchDomain1.ethernet.paddingInserter incomingPacketLengths:vector ETV
attr interpolationmode none
attr recordingmode vector
attr source "packetLength(merge(packetPushedIn, packetPulledIn))"
attr title "incoming packet lengths"
attr unit b
vector 66 TimeSyncUEUE.TsnSwitchDomain1.ethernet.paddingInserter outgoingPacketLengths:vector ETV
attr interpolationmode none
attr recordingmode vector
attr source "packetLength(merge(packetPushedOut, packetPulledOut))"
attr title "outgoing packet lengths"
attr unit b
vector 67 TimeSyncUEUE.TsnSwitchDomain1.ethernet.fcsInserter incomingPacketLengths:vector ETV
attr interpolationmode none
attr recordingmode vector
attr source "packetLength(merge(packetPushedIn, packetPulledIn))"
attr title "incoming packet lengths"
attr unit b
vector 68 TimeSyncUEUE.TsnSwitchDomain1.ethernet.fcsInserter outgoingPacketLengths:vector ETV
attr interpolationmode none
attr recordingmode vector
attr source "packetLength(merge(packetPushedOut, packetPulledOut))"
attr title "outgoing packet lengths"
attr unit b
vector 69 TimeSyncUEUE.TsnSwitchDomain1.eth[0].macLayer.queue incomingPacketLengths:vector ETV
attr interpolationmode none
attr recordingmode vector
attr source packetLength(packetPushStarted)
attr title "incoming packet lengths"
attr unit b
vector 70 TimeSyncUEUE.TsnSwitchDomain2.ethernet.macHeaderInserter incomingPacketLengths:vector ETV
attr interpolationmode none
attr recordingmode vector
attr source "packetLength(merge(packetPushedIn, packetPulledIn))"
attr title "incoming packet lengths"
attr unit b
vector 71 TimeSyncUEUE.TsnSwitchDomain2.ethernet.macHeaderInserter outgoingPacketLengths:vector ETV
attr interpolationmode none
attr recordingmode vector
attr source "packetLength(merge(packetPushedOut, packetPulledOut))"
attr title "outgoing packet lengths"
attr unit b
vector 72 TimeSyncUEUE.TsnSwitchDomain2.ethernet.paddingInserter incomingPacketLengths:vector ETV
attr interpolationmode none
attr recordingmode vector
attr source "packetLength(merge(packetPushedIn, packetPulledIn))"
attr title "incoming packet lengths"
attr unit b
vector 73 TimeSyncUEUE.TsnSwitchDomain2.ethernet.paddingInserter outgoingPacketLengths:vector ETV
attr interpolationmode none
attr recordingmode vector
attr source "packetLength(merge(packetPushedOut, packetPulledOut))"
attr title "outgoing packet lengths"
attr unit b
vector 74 TimeSyncUEUE.TsnSwitchDomain2.ethernet.fcsInserter incomingPacketLengths:vector ETV
attr interpolationmode none
attr recordingmode vector
attr source "packetLength(merge(packetPushedIn, packetPulledIn))"
attr title "incoming packet lengths"
attr unit b
vector 75 TimeSyncUEUE.TsnSwitchDomain2.ethernet.fcsInserter outgoingPacketLengths:vector ETV
attr interpolationmode none
attr recordingmode vector
attr source "packetLength(merge(packetPushedOut, packetPulledOut))"
attr title "outgoing packet lengths"
attr unit b
vector 76 TimeSyncUEUE.TsnSwitchDomain2.eth[0].macLayer.queue incomingPacketLengths:vector ETV
attr interpolationmode none
attr recordingmode vector
attr source packetLength(packetPushStarted)
attr title "incoming packet lengths"
attr unit b
vector 77 TimeSyncUEUE.FGS.nwtt[0].bridging.streamCoder.encoder incomingPacketLengths:vector ETV
attr interpolationmode none
attr recordingmode vector
attr source "packetLength(merge(packetPushedIn, packetPulledIn))"
attr title "incoming packet lengths"
attr unit b
vector 78 TimeSyncUEUE.FGS.nwtt[0].bridging.streamCoder.encoder outgoingPacketLengths:vector ETV
attr interpolationmode none
attr recordingmode vector
attr source "packetLength(merge(packetPushedOut, packetPulledOut))"
attr title "outgoing packet lengths"
attr unit b
vector 79 TimeSyncUEUE.TsnSwitchDomain1.eth[0].macLayer.queue queueingTime:vector ETV
attr interpolationmode none
attr recordingmode vector
attr source queueingTime(packetPulled)
attr title "queueing times"
attr unit s
vector 80 TimeSyncUEUE.TsnSwitchDomain1.eth[0].macLayer.queue outgoingPacketLengths:vector ETV
attr interpolationmode none
attr recordingmode vector
attr source packetLength(packetPulled)
attr title "outgoing packet lengths"
attr unit b
vector 81 TimeSyncUEUE.TsnSwitchDomain1.eth[0].macLayer.server incomingPacketLengths:vector ETV
attr interpolationmode none
attr recordingmode vector
attr source packetLength(packetPulled)
attr title "incoming packet lengths"
attr unit b
vector 82 TimeSyncUEUE.TsnSwitchDomain1.eth[0].macLayer.server outgoingPacketLengths:vector ETV
attr interpolationmode none
attr recordingmode vector
attr source packetLength(packetPushed)
attr title "outgoing packet lengths"
attr unit b
vector 83 TimeSyncUEUE.TsnSwitchDomain1.eth[0].macLayer.outboundEmitter incomingPacketLengths:vector ETV
attr interpolationmode none
attr recordingmode vector
attr source "packetLength(merge(packetPushedIn, packetPulledIn))"
attr title "incoming packet lengths"
attr unit b
vector 84 TimeSyncUEUE.TsnSwitchDomain1.eth[0].macLayer.outboundEmitter outgoingPacketLengths:vector ETV
attr interpolationmode none
attr recordingmode vector
attr source "packetLength(merge(packetPushedOut, packetPulledOut))"
attr title "outgoing packet lengths"
attr unit b
vector 85 TimeSyncUEUE.TsnSwitchDomain1.eth[0].phyLayer.phyHeaderInserter incomingPacketLengths:vector ETV
attr interpolationmode none
attr recordingmode vector
attr source "packetLength(merge(packetPushedIn, packetPulledIn))"
attr title "incoming packet lengths"
attr unit b
vector 86 TimeSyncUEUE.TsnSwitchDomain1.eth[0].phyLayer.phyHeaderInserter outgoingPacketLengths:vector ETV
attr interpolationmode none
attr recordingmode vector
attr source "packetLength(merge(packetPushedOut, packetPulledOut))"
attr title "outgoing packet lengths"
attr unit b
vector 87 TimeSyncUEUE.TsnSwitchDomain1.eth[0].phyLayer.outboundEmitter incomingPacketLengths:vector ETV
attr interpolationmode none
attr recordingmode vector
attr source "packetLength(merge(packetPushedIn, packetPulledIn))"
attr title "incoming packet lengths"
attr unit b
vector 88 TimeSyncUEUE.TsnSwitchDomain1.eth[0].phyLayer.outboundEmitter outgoingPacketLengths:vector ETV
attr interpolationmode none
attr recordingmode vector
attr source "packetLength(merge(packetPushedOut, packetPulledOut))"
attr title "outgoing packet lengths"
attr unit b
vector 89 TimeSyncUEUE.TsnSwitchDomain2.eth[0].macLayer.queue queueingTime:vector ETV
attr interpolationmode none
attr recordingmode vector
attr source queueingTime(packetPulled)
attr title "queueing times"
attr unit s
vector 90 TimeSyncUEUE.TsnSwitchDomain2.eth[0].macLayer.queue outgoingPacketLengths:vector ETV
attr interpolationmode none
attr recordingmode vector
attr source packetLength(packetPulled)
attr title "outgoing packet lengths"
attr unit b
vector 91 TimeSyncUEUE.TsnSwitchDomain2.eth[0].macLayer.server incomingPacketLengths:vector ETV
attr interpolationmode none
attr recordingmode vector
attr source packetLength(packetPulled)
attr title "incoming packet lengths"
attr unit b
vector 92 TimeSyncUEUE.TsnSwitchDomain2.eth[0].macLayer.server outgoingPacketLengths:vector ETV
attr interpolationmode none
attr recordingmode vector
attr source packetLength(packetPushed)
attr title "outgoing packet lengths"
attr unit b
vector 93 TimeSyncUEUE.TsnSwitchDomain2.eth[0].macLayer.outboundEmitter incomingPacketLengths:vector ETV
attr interpolationmode none
attr recordingmode vector
attr source "packetLength(merge(packetPushedIn, packetPulledIn))"
attr title "incoming packet lengths"
attr unit b
vector 94 TimeSyncUEUE.TsnSwitchDomain2.eth[0].macLayer.outboundEmitter outgoingPacketLengths:vector ETV
attr interpolationmode none
attr recordingmode vector
attr source "packetLength(merge(packetPushedOut, packetPulledOut))"
attr title "outgoing packet lengths"
attr unit b
vector 95 TimeSyncUEUE.TsnSwitchDomain2.eth[0].phyLayer.phyHeaderInserter incomingPacketLengths:vector ETV
attr interpolationmode none
attr recordingmode vector
attr source "packetLength(merge(packetPushedIn, packetPulledIn))"
attr title "incoming packet lengths"
attr unit b
vector 96 TimeSyncUEUE.TsnSwitchDomain2.eth[0].phyLayer.phyHeaderInserter outgoingPacketLengths:vector ETV
attr interpolationmode none
attr recordingmode vector
attr source "packetLength(merge(packetPushedOut, packetPulledOut))"
attr title "outgoing packet lengths"
attr unit b
vector 97 TimeSyncUEUE.TsnSwitchDomain2.eth[0].phyLayer.outboundEmitter incomingPacketLengths:vector ETV
attr interpolationmode none
attr recordingmode vector
attr source "packetLength(merge(packetPushedIn, packetPulledIn))"
attr title "incoming packet lengths"
attr unit b
vector 98 TimeSyncUEUE.TsnSwitchDomain2.eth[0].phyLayer.outboundEmitter outgoingPacketLengths:vector ETV
attr interpolationmode none
attr recordingmode vector
attr source "packetLength(merge(packetPushedOut, packetPulledOut))"
attr title "outgoing packet lengths"
attr unit b
vector 99 TimeSyncUEUE.FGS.nwtt[0].ethernet.macHeaderInserter incomingPacketLengths:vector ETV
attr interpolationmode none
attr recordingmode vector
attr source "packetLength(merge(packetPushedIn, packetPulledIn))"
attr title "incoming packet lengths"
attr unit b
vector 100 TimeSyncUEUE.FGS.nwtt[0].ethernet.macHeaderInserter outgoingPacketLengths:vector ETV
attr interpolationmode none
attr recordingmode vector
attr source "packetLength(merge(packetPushedOut, packetPulledOut))"
attr title "outgoing packet lengths"
attr unit b
vector 101 TimeSyncUEUE.FGS.nwtt[0].ethernet.paddingInserter incomingPacketLengths:vector ETV
attr interpolationmode none
attr recordingmode vector
attr source "packetLength(merge(packetPushedIn, packetPulledIn))"
attr title "incoming packet lengths"
attr unit b
vector 102 TimeSyncUEUE.FGS.nwtt[0].ethernet.paddingInserter outgoingPacketLengths:vector ETV
attr interpolationmode none
attr recordingmode vector
attr source "packetLength(merge(packetPushedOut, packetPulledOut))"
attr title "outgoing packet lengths"
attr unit b
vector 103 TimeSyncUEUE.FGS.nwtt[0].ethernet.fcsInserter incomingPacketLengths:vector ETV
attr interpolationmode none
attr recordingmode vector
attr source "packetLength(merge(packetPushedIn, packetPulledIn))"
attr title "incoming packet lengths"
attr unit b
vector 104 TimeSyncUEUE.FGS.nwtt[0].ethernet.fcsInserter outgoingPacketLengths:vector ETV
attr interpolationmode none
attr recordingmode vector
attr source "packetLength(merge(packetPushedOut, packetPulledOut))"
attr title "outgoing packet lengths"
attr unit b
vector 105 TimeSyncUEUE.FGS.nwtt[0].eth[0].macLayer.queue incomingPacketLengths:vector ETV
attr interpolationmode none
attr recordingmode vector
attr source packetLength(packetPushStarted)
attr title "incoming packet lengths"
attr unit b
vector 106 TimeSyncUEUE.FGS.nwtt[0].eth[0].macLayer.queue queueingTime:vector ETV
attr interpolationmode none
attr recordingmode vector
attr source queueingTime(packetPulled)
attr title "queueing times"
attr unit s
vector 107 TimeSyncUEUE.FGS.nwtt[0].eth[0].macLayer.queue outgoingPacketLengths:vector ETV
attr interpolationmode none
attr recordingmode vector
attr source packetLength(packetPulled)
attr title "outgoing packet lengths"
attr unit b
vector 108 TimeSyncUEUE.FGS.nwtt[0].eth[0].macLayer.server incomingPacketLengths:vector ETV
attr interpolationmode none
attr recordingmode vector
attr source packetLength(packetPulled)
attr title "incoming packet lengths"
attr unit b
vector 109 TimeSyncUEUE.FGS.nwtt[0].eth[0].macLayer.server outgoingPacketLengths:vector ETV
attr interpolationmode none
attr recordingmode vector
attr source packetLength(packetPushed)
attr title "outgoing packet lengths"
attr unit b
vector 110 TimeSyncUEUE.FGS.nwtt[0].eth[0].macLayer.outboundEmitter incomingPacketLengths:vector ETV
attr interpolationmode none
attr recordingmode vector
attr source "packetLength(merge(packetPushedIn, packetPulledIn))"
attr title "incoming packet lengths"
attr unit b
vector 111 TimeSyncUEUE.FGS.nwtt[0].eth[0].macLayer.outboundEmitter outgoingPacketLengths:vector ETV
attr interpolationmode none
attr recordingmode vector
attr source "packetLength(merge(packetPushedOut, packetPulledOut))"
attr title "outgoing packet lengths"
attr unit b
vector 112 TimeSyncUEUE.FGS.nwtt[0].eth[0].phyLayer.phyHeaderInserter incomingPacketLengths:vector ETV
attr interpolationmode none
attr recordingmode vector
attr source "packetLength(merge(packetPushedIn, packetPulledIn))"
attr title "incoming packet lengths"
attr unit b
vector 113 TimeSyncUEUE.FGS.nwtt[0].eth[0].phyLayer.phyHeaderInserter outgoingPacketLengths:vector ETV
attr interpolationmode none
attr recordingmode vector
attr source "packetLength(merge(packetPushedOut, packetPulledOut))"
attr title "outgoing packet lengths"
attr unit b
vector 114 TimeSyncUEUE.FGS.nwtt[0].eth[0].phyLayer.outboundEmitter incomingPacketLengths:vector ETV
attr interpolationmode none
attr recordingmode vector
attr source "packetLength(merge(packetPushedIn, packetPulledIn))"
attr title "incoming packet lengths"
attr unit b
vector 115 TimeSyncUEUE.FGS.nwtt[0].eth[0].phyLayer.outboundEmitter outgoingPacketLengths:vector ETV
attr interpolationmode none
attr recordingmode vector
attr source "packetLength(merge(packetPushedOut, packetPulledOut))"
attr title "outgoing packet lengths"
attr unit b
vector 116 TimeSyncUEUE.TsnSwitchDomain1.eth[0].phyLayer.transmitter transmissionTime:vector ETV
attr interpolationmode none
attr recordingmode vector
attr source packetDuration(transmissionEnded)
attr title "transmission time"
attr unit s
vector 117 TimeSyncUEUE.TsnSwitchDomain2.eth[0].phyLayer.transmitter transmissionTime:vector ETV
attr interpolationmode none
attr recordingmode vector
attr source packetDuration(transmissionEnded)
attr title "transmission time"
attr unit s
vector 118 TimeSyncUEUE.FGS.nwtt[0].eth[0].phyLayer.transmitter transmissionTime:vector ETV
attr interpolationmode none
attr recordingmode vector
attr source packetDuration(transmissionEnded)
attr title "transmission time"
attr unit s
vector 119 TimeSyncUEUE.FGS.dstt[0].eth[0].phyLayer.receiver receptionTime:vector ETV
attr interpolationmode none
attr recordingmode vector
attr source packetDuration(receptionEnded)
attr title "reception time"
attr unit s
vector 120 TimeSyncUEUE.FGS.dstt[0].eth[0].phyLayer.inboundEmitter incomingPacketLengths:vector ETV
attr interpolationmode none
attr recordingmode vector
attr source "packetLength(merge(packetPushedIn, packetPulledIn))"
attr title "incoming packet lengths"
attr unit b
vector 121 TimeSyncUEUE.FGS.dstt[0].eth[0].phyLayer.inboundEmitter outgoingPacketLengths:vector ETV
attr interpolationmode none
attr recordingmode vector
attr source "packetLength(merge(packetPushedOut, packetPulledOut))"
attr title "outgoing packet lengths"
attr unit b
vector 122 TimeSyncUEUE.FGS.dstt[0].eth[0].phyLayer.phyHeaderChecker incomingPacketLengths:vector ETV
attr interpolationmode none
attr recordingmode vector
attr source "packetLength(merge(packetPushedIn, packetPulledIn))"
attr title "incoming packet lengths"
attr unit b
vector 123 TimeSyncUEUE.FGS.dstt[0].eth[0].phyLayer.phyHeaderChecker outgoingPacketLengths:vector ETV
attr interpolationmode none
attr recordingmode vector
attr source "packetLength(merge(packetPushedOut, packetPulledOut))"
attr title "outgoing packet lengths"
attr unit b
vector 124 TimeSyncUEUE.FGS.dstt[0].eth[0].macLayer.inboundEmitter incomingPacketLengths:vector ETV
attr interpolationmode none
attr recordingmode vector
attr source "packetLength(merge(packetPushedIn, packetPulledIn))"
attr title "incoming packet lengths"
attr unit b
vector 125 TimeSyncUEUE.FGS.dstt[0].eth[0].macLayer.inboundEmitter outgoingPacketLengths:vector ETV
attr interpolationmode none
attr recordingmode vector
attr source "packetLength(merge(packetPushedOut, packetPulledOut))"
attr title "outgoing packet lengths"
attr unit b
vector 126 TimeSyncUEUE.FGS.dstt[0].eth[0].macLayer.fcsChecker incomingPacketLengths:vector ETV
attr interpolationmode none
attr recordingmode vector
attr source "packetLength(merge(packetPushedIn, packetPulledIn))"
attr title "incoming packet lengths"
attr unit b
vector 127 TimeSyncUEUE.FGS.dstt[0].eth[0].macLayer.fcsChecker outgoingPacketLengths:vector ETV
attr interpolationmode none
attr recordingmode vector
attr source "packetLength(merge(packetPushedOut, packetPulledOut))"
attr title "outgoing packet lengths"
attr unit b
vector 128 TimeSyncUEUE.FGS.dstt[0].ethernet.fcsChecker incomingPacketLengths:vector ETV
attr interpolationmode none
attr recordingmode vector
attr source "packetLength(merge(packetPushedIn, packetPulledIn))"
attr title "incoming packet lengths"
attr unit b
vector 129 TimeSyncUEUE.FGS.dstt[0].ethernet.fcsChecker outgoingPacketLengths:vector ETV
attr interpolationmode none
attr recordingmode vector
attr source "packetLength(merge(packetPushedOut, packetPulledOut))"
attr title "outgoing packet lengths"
attr unit b
vector 130 TimeSyncUEUE.FGS.dstt[0].ethernet.macHeaderChecker incomingPacketLengths:vector ETV
attr interpolationmode none
attr recordingmode vector
attr source "packetLength(merge(packetPushedIn, packetPulledIn))"
attr title "incoming packet lengths"
attr unit b
vector 131 TimeSyncUEUE.FGS.dstt[0].ethernet.macHeaderChecker outgoingPacketLengths:vector ETV
attr interpolationmode none
attr recordingmode vector
attr source "packetLength(merge(packetPushedOut, packetPulledOut))"
attr title "outgoing packet lengths"
attr unit b
vector 132 TimeSyncUEUE.FGS.dstt[0].bridging.interfaceRelay.learner incomingPacketLengths:vector ETV
attr interpolationmode none
attr recordingmode vector
attr source "packetLength(merge(packetPushedIn, packetPulledIn))"
attr title "incoming packet lengths"
attr unit b
vector 133 TimeSyncUEUE.FGS.dstt[0].bridging.interfaceRelay.learner outgoingPacketLengths:vector ETV
attr interpolationmode none
attr recordingmode vector
attr source "packetLength(merge(packetPushedOut, packetPulledOut))"
attr title "outgoing packet lengths"
attr unit b
vector 134 TimeSyncUEUE.FGS.dstt[0].bridging.streamCoder.decoder incomingPacketLengths:vector ETV
attr interpolationmode none
attr recordingmode vector
attr source "packetLength(merge(packetPushedIn, packetPulledIn))"
attr title "incoming packet lengths"
attr unit b
vector 135 TimeSyncUEUE.FGS.dstt[0].bridging.streamCoder.decoder outgoingPacketLengths:vector ETV
attr interpolationmode none
attr recordingmode vector
attr source "packetLength(merge(packetPushedOut, packetPulledOut))"
attr title "outgoing packet lengths"
attr unit b
vector 136 TimeSyncUEUE.FGS.dstt[0].gptp.classifier packetLengths:vector ETV
attr interpolationmode none
attr recordingmode vector
attr source packetLength(packetPushed)
attr title "packet lengths"
attr unit b
vector 137 TimeSyncUEUE.FGS.dstt[1].eth[0].phyLayer.receiver receptionTime:vector ETV
attr interpolationmode none
attr recordingmode vector
attr source packetDuration(receptionEnded)
attr title "reception time"
attr unit s
vector 138 TimeSyncUEUE.FGS.dstt[1].eth[0].phyLayer.inboundEmitter incomingPacketLengths:vector ETV
attr interpolationmode none
attr recordingmode vector
attr source "packetLength(merge(packetPushedIn, packetPulledIn))"
attr title "incoming packet lengths"
attr unit b
vector 139 TimeSyncUEUE.FGS.dstt[1].eth[0].phyLayer.inboundEmitter outgoingPacketLengths:vector ETV
attr interpolationmode none
attr recordingmode vector
attr source "packetLength(merge(packetPushedOut, packetPulledOut))"
attr title "outgoing packet lengths"
attr unit b
vector 140 TimeSyncUEUE.FGS.dstt[1].eth[0].phyLayer.phyHeaderChecker incomingPacketLengths:vector ETV
attr interpolationmode none
attr recordingmode vector
attr source "packetLength(merge(packetPushedIn, packetPulledIn))"
attr title "incoming packet lengths"
attr unit b
vector 141 TimeSyncUEUE.FGS.dstt[1].eth[0].phyLayer.phyHeaderChecker outgoingPacketLengths:vector ETV
attr interpolationmode none
attr recordingmode vector
attr source "packetLength(merge(packetPushedOut, packetPulledOut))"
attr title "outgoing packet lengths"
attr unit b
vector 142 TimeSyncUEUE.FGS.dstt[1].eth[0].macLayer.inboundEmitter incomingPacketLengths:vector ETV
attr interpolationmode none
attr recordingmode vector
attr source "packetLength(merge(packetPushedIn, packetPulledIn))"
attr title "incoming packet lengths"
attr unit b
vector 143 TimeSyncUEUE.FGS.dstt[1].eth[0].macLayer.inboundEmitter outgoingPacketLengths:vector ETV
attr interpolationmode none
attr recordingmode vector
attr source "packetLength(merge(packetPushedOut, packetPulledOut))"
attr title "outgoing packet lengths"
attr unit b
vector 144 TimeSyncUEUE.FGS.dstt[1].eth[0].macLayer.fcsChecker incomingPacketLengths:vector ETV
attr interpolationmode none
attr recordingmode vector
attr source "packetLength(merge(packetPushedIn, packetPulledIn))"
attr title "incoming packet lengths"
attr unit b
vector 145 TimeSyncUEUE.FGS.dstt[1].eth[0].macLayer.fcsChecker outgoingPacketLengths:vector ETV
attr interpolationmode none
attr recordingmode vector
attr source "packetLength(merge(packetPushedOut, packetPulledOut))"
attr title "outgoing packet lengths"
attr unit b
vector 146 TimeSyncUEUE.FGS.dstt[1].ethernet.fcsChecker incomingPacketLengths:vector ETV
attr interpolationmode none
attr recordingmode vector
attr source "packetLength(merge(packetPushedIn, packetPulledIn))"
attr title "incoming packet lengths"
attr unit b
vector 147 TimeSyncUEUE.FGS.dstt[1].ethernet.fcsChecker outgoingPacketLengths:vector ETV
attr interpolationmode none
attr recordingmode vector
attr source "packetLength(merge(packetPushedOut, packetPulledOut))"
attr title "outgoing packet lengths"
attr unit b
vector 148 TimeSyncUEUE.FGS.dstt[1].ethernet.macHeaderChecker incomingPacketLengths:vector ETV
attr interpolationmode none
attr recordingmode vector
attr source "packetLength(merge(packetPushedIn, packetPulledIn))"
attr title "incoming packet lengths"
attr unit b
vector 149 TimeSyncUEUE.FGS.dstt[1].ethernet.macHeaderChecker outgoingPacketLengths:vector ETV
attr interpolationmode none
attr recordingmode vector
attr source "packetLength(merge(packetPushedOut, packetPulledOut))"
attr title "outgoing packet lengths"
attr unit b
vector 150 TimeSyncUEUE.FGS.dstt[1].bridging.interfaceRelay.learner incomingPacketLengths:vector ETV
attr interpolationmode none
attr recordingmode vector
attr source "packetLength(merge(packetPushedIn, packetPulledIn))"
attr title "incoming packet lengths"
attr unit b
vector 151 TimeSyncUEUE.FGS.dstt[1].bridging.interfaceRelay.learner outgoingPacketLengths:vector ETV
attr interpolationmode none
attr recordingmode vector
attr source "packetLength(merge(packetPushedOut, packetPulledOut))"
attr title "outgoing packet lengths"
attr unit b
vector 152 TimeSyncUEUE.FGS.dstt[1].bridging.streamCoder.decoder incomingPacketLengths:vector ETV
attr interpolationmode none
attr recordingmode vector
attr source "packetLength(merge(packetPushedIn, packetPulledIn))"
attr title "incoming packet lengths"
attr unit b
vector 153 TimeSyncUEUE.FGS.dstt[1].bridging.streamCoder.decoder outgoingPacketLengths:vector ETV
attr interpolationmode none
attr recordingmode vector
attr source "packetLength(merge(packetPushedOut, packetPulledOut))"
attr title "outgoing packet lengths"
attr unit b
vector 154 TimeSyncUEUE.FGS.dstt[1].gptp.classifier packetLengths:vector ETV
attr interpolationmode none
attr recordingmode vector
attr source packetLength(packetPushed)
attr title "packet lengths"
attr unit b
vector 155 TimeSyncUEUE.TsnSwitchDataNetwork.eth[0].phyLayer.receiver receptionTime:vector ETV
attr interpolationmode none
attr recordingmode vector
attr source packetDuration(receptionEnded)
attr title "reception time"
attr unit s
vector 156 TimeSyncUEUE.TsnSwitchDataNetwork.eth[0].phyLayer.inboundEmitter incomingPacketLengths:vector ETV
attr interpolationmode none
attr recordingmode vector
attr source "packetLength(merge(packetPushedIn, packetPulledIn))"
attr title "incoming packet lengths"
attr unit b
vector 157 TimeSyncUEUE.TsnSwitchDataNetwork.eth[0].phyLayer.inboundEmitter outgoingPacketLengths:vector ETV
attr interpolationmode none
attr recordingmode vector
attr source "packetLength(merge(packetPushedOut, packetPulledOut))"
attr title "outgoing packet lengths"
attr unit b
vector 158 TimeSyncUEUE.TsnSwitchDataNetwork.eth[0].phyLayer.phyHeaderChecker incomingPacketLengths:vector ETV
attr interpolationmode none
attr recordingmode vector
attr source "packetLength(merge(packetPushedIn, packetPulledIn))"
attr title "incoming packet lengths"
attr unit b
vector 159 TimeSyncUEUE.TsnSwitchDataNetwork.eth[0].phyLayer.phyHeaderChecker outgoingPacketLengths:vector ETV
attr interpolationmode none
attr recordingmode vector
attr source "packetLength(merge(packetPushedOut, packetPulledOut))"
attr title "outgoing packet lengths"
attr unit b
vector 160 TimeSyncUEUE.TsnSwitchDataNetwork.eth[0].macLayer.inboundEmitter incomingPacketLengths:vector ETV
attr interpolationmode none
attr recordingmode vector
attr source "packetLength(merge(packetPushedIn, packetPulledIn))"
attr title "incoming packet lengths"
attr unit b
vector 161 TimeSyncUEUE.TsnSwitchDataNetwork.eth[0].macLayer.inboundEmitter outgoingPacketLengths:vector ETV
attr interpolationmode none
attr recordingmode vector
attr source "packetLength(merge(packetPushedOut, packetPulledOut))"
attr title "outgoing packet lengths"
attr unit b
vector 162 TimeSyncUEUE.TsnSwitchDataNetwork.eth[0].macLayer.fcsChecker incomingPacketLengths:vector ETV
attr interpolationmode none
attr recordingmode vector
attr source "packetLength(merge(packetPushedIn, packetPulledIn))"
attr title "incoming packet lengths"
attr unit b
vector 163 TimeSyncUEUE.TsnSwitchDataNetwork.eth[0].macLayer.fcsChecker outgoingPacketLengths:vector ETV
attr interpolationmode none
attr recordingmode vector
attr source "packetLength(merge(packetPushedOut, packetPulledOut))"
attr title "outgoing packet lengths"
attr unit b
vector 164 TimeSyncUEUE.TsnSwitchDataNetwork.ethernet.fcsChecker incomingPacketLengths:vector ETV
attr interpolationmode none
attr recordingmode vector
attr source "packetLength(merge(packetPushedIn, packetPulledIn))"
attr title "incoming packet lengths"
attr unit b
vector 165 TimeSyncUEUE.TsnSwitchDataNetwork.ethernet.fcsChecker outgoingPacketLengths:vector ETV
attr interpolationmode none
attr recordingmode vector
attr source "packetLength(merge(packetPushedOut, packetPulledOut))"
attr title "outgoing packet lengths"
attr unit b
vector 166 TimeSyncUEUE.TsnSwitchDataNetwork.ethernet.macHeaderChecker incomingPacketLengths:vector ETV
attr interpolationmode none
attr recordingmode vector
attr source "packetLength(merge(packetPushedIn, packetPulledIn))"
attr title "incoming packet lengths"
attr unit b
vector 167 TimeSyncUEUE.TsnSwitchDataNetwork.ethernet.macHeaderChecker outgoingPacketLengths:vector ETV
attr interpolationmode none
attr recordingmode vector
attr source "packetLength(merge(packetPushedOut, packetPulledOut))"
attr title "outgoing packet lengths"
attr unit b
vector 168 TimeSyncUEUE.FGS.dstt[0].bridging.streamCoder.encoder incomingPacketLengths:vector ETV
attr interpolationmode none
attr recordingmode vector
attr source "packetLength(merge(packetPushedIn, packetPulledIn))"
attr title "incoming packet lengths"
attr unit b
vector 169 TimeSyncUEUE.FGS.dstt[0].bridging.streamCoder.encoder outgoingPacketLengths:vector ETV
attr interpolationmode none
attr recordingmode vector
attr source "packetLength(merge(packetPushedOut, packetPulledOut))"
attr title "outgoing packet lengths"
attr unit b
vector 170 TimeSyncUEUE.FGS.dstt[1].bridging.streamCoder.encoder incomingPacketLengths:vector ETV
attr interpolationmode none
attr recordingmode vector
attr source "packetLength(merge(packetPushedIn, packetPulledIn))"
attr title "incoming packet lengths"
attr unit b
vector 171 TimeSyncUEUE.FGS.dstt[1].bridging.streamCoder.encoder outgoingPacketLengths:vector ETV
attr interpolationmode none
attr recordingmode vector
attr source "packetLength(merge(packetPushedOut, packetPulledOut))"
attr title "outgoing packet lengths"
attr unit b
vector 172 TimeSyncUEUE.TsnSwitchDataNetwork.ethernet.macHeaderInserter incomingPacketLengths:vector ETV
attr interpolationmode none
attr recordingmode vector
attr source "packetLength(merge(packetPushedIn, packetPulledIn))"
attr title "incoming packet lengths"
attr unit b
vector 173 TimeSyncUEUE.TsnSwitchDataNetwork.ethernet.macHeaderInserter outgoingPacketLengths:vector ETV
attr interpolationmode none
attr recordingmode vector
attr source "packetLength(merge(packetPushedOut, packetPulledOut))"
attr title "outgoing packet lengths"
attr unit b
vector 174 TimeSyncUEUE.TsnSwitchDataNetwork.ethernet.paddingInserter incomingPacketLengths:vector ETV
attr interpolationmode none
attr recordingmode vector
attr source "packetLength(merge(packetPushedIn, packetPulledIn))"
attr title "incoming packet lengths"
attr unit b
vector 175 TimeSyncUEUE.TsnSwitchDataNetwork.ethernet.paddingInserter outgoingPacketLengths:vector ETV
attr interpolationmode none
attr recordingmode vector
attr source "packetLength(merge(packetPushedOut, packetPulledOut))"
attr title "outgoing packet lengths"
attr unit b
vector 176 TimeSyncUEUE.TsnSwitchDataNetwork.ethernet.fcsInserter incomingPacketLengths:vector ETV
attr interpolationmode none
attr recordingmode vector
attr source "packetLength(merge(packetPushedIn, packetPulledIn))"
attr title "incoming packet lengths"
attr unit b
vector 177 TimeSyncUEUE.TsnSwitchDataNetwork.ethernet.fcsInserter outgoingPacketLengths:vector ETV
attr interpolationmode none
attr recordingmode vector
attr source "packetLength(merge(packetPushedOut, packetPulledOut))"
attr title "outgoing packet lengths"
attr unit b
vector 178 TimeSyncUEUE.TsnSwitchDataNetwork.eth[0].macLayer.queue incomingPacketLengths:vector ETV
attr interpolationmode none
attr recordingmode vector
attr source packetLength(packetPushStarted)
attr title "incoming packet lengths"
attr unit b
vector 179 TimeSyncUEUE.FGS.dstt[0].ethernet.macHeaderInserter incomingPacketLengths:vector ETV
attr interpolationmode none
attr recordingmode vector
attr source "packetLength(merge(packetPushedIn, packetPulledIn))"
attr title "incoming packet lengths"
attr unit b
vector 180 TimeSyncUEUE.FGS.dstt[0].ethernet.macHeaderInserter outgoingPacketLengths:vector ETV
attr interpolationmode none
attr recordingmode vector
attr source "packetLength(merge(packetPushedOut, packetPulledOut))"
attr title "outgoing packet lengths"
attr unit b
vector 181 TimeSyncUEUE.FGS.dstt[0].ethernet.paddingInserter incomingPacketLengths:vector ETV
attr interpolationmode none
attr recordingmode vector
attr source "packetLength(merge(packetPushedIn, packetPulledIn))"
attr title "incoming packet lengths"
attr unit b
vector 182 TimeSyncUEUE.FGS.dstt[0].ethernet.paddingInserter outgoingPacketLengths:vector ETV
attr interpolationmode none
attr recordingmode vector
attr source "packetLength(merge(packetPushedOut, packetPulledOut))"
attr title "outgoing packet lengths"
attr unit b
vector 183 TimeSyncUEUE.FGS.dstt[0].ethernet.fcsInserter incomingPacketLengths:vector ETV
attr interpolationmode none
attr recordingmode vector
attr source "packetLength(merge(packetPushedIn, packetPulledIn))"
attr title "incoming packet lengths"
attr unit b
vector 184 TimeSyncUEUE.FGS.dstt[0].ethernet.fcsInserter outgoingPacketLengths:vector ETV
attr interpolationmode none
attr recordingmode vector
attr source "packetLength(merge(packetPushedOut, packetPulledOut))"
attr title "outgoing packet lengths"
attr unit b
vector 185 TimeSyncUEUE.FGS.dstt[0].eth[0].macLayer.queue incomingPacketLengths:vector ETV
attr interpolationmode none
attr recordingmode vector
attr source packetLength(packetPushStarted)
attr title "incoming packet lengths"
attr unit b
vector 186 TimeSyncUEUE.FGS.dstt[1].ethernet.macHeaderInserter incomingPacketLengths:vector ETV
attr interpolationmode none
attr recordingmode vector
attr source "packetLength(merge(packetPushedIn, packetPulledIn))"
attr title "incoming packet lengths"
attr unit b
vector 187 TimeSyncUEUE.FGS.dstt[1].ethernet.macHeaderInserter outgoingPacketLengths:vector ETV
attr interpolationmode none
attr recordingmode vector
attr source "packetLength(merge(packetPushedOut, packetPulledOut))"
attr title "outgoing packet lengths"
attr unit b
vector 188 TimeSyncUEUE.FGS.dstt[1].ethernet.paddingInserter incomingPacketLengths:vector ETV
attr interpolationmode none
attr recordingmode vector
attr source "packetLength(merge(packetPushedIn, packetPulledIn))"
attr title "incoming packet lengths"
attr unit b
vector 189 TimeSyncUEUE.FGS.dstt[1].ethernet.paddingInserter outgoingPacketLengths:vector ETV
attr interpolationmode none
attr recordingmode vector
attr source "packetLength(merge(packetPushedOut, packetPulledOut))"
attr title "outgoing packet lengths"
attr unit b
vector 190 TimeSyncUEUE.FGS.dstt[1].ethernet.fcsInserter incomingPacketLengths:vector ETV
attr interpolationmode none
attr recordingmode vector
attr source "packetLength(merge(packetPushedIn, packetPulledIn))"
attr title "incoming packet lengths"
attr unit b
vector 191 TimeSyncUEUE.FGS.dstt[1].ethernet.fcsInserter outgoingPacketLengths:vector ETV
attr interpolationmode none
attr recordingmode vector
attr source "packetLength(merge(packetPushedOut, packetPulledOut))"
attr title "outgoing packet lengths"
attr unit b
vector 192 TimeSyncUEUE.FGS.dstt[1].eth[0].macLayer.queue incomingPacketLengths:vector ETV
attr interpolationmode none
attr recordingmode vector
attr source packetLength(packetPushStarted)
attr title "incoming packet lengths"
attr unit b
vector 193 TimeSyncUEUE.TsnSwitchDataNetwork.eth[0].macLayer.queue queueingTime:vector ETV
attr interpolationmode none
attr recordingmode vector
attr source queueingTime(packetPulled)
attr title "queueing times"
attr unit s
vector 194 TimeSyncUEUE.TsnSwitchDataNetwork.eth[0].macLayer.queue outgoingPacketLengths:vector ETV
attr interpolationmode none
attr recordingmode vector
attr source packetLength(packetPulled)
attr title "outgoing packet lengths"
attr unit b
vector 195 TimeSyncUEUE.TsnSwitchDataNetwork.eth[0].macLayer.server incomingPacketLengths:vector ETV
attr interpolationmode none
attr recordingmode vector
attr source packetLength(packetPulled)
attr title "incoming packet lengths"
attr unit b
vector 196 TimeSyncUEUE.TsnSwitchDataNetwork.eth[0].macLayer.server outgoingPacketLengths:vector ETV
attr interpolationmode none
attr recordingmode vector
attr source packetLength(packetPushed)
attr title "outgoing packet lengths"
attr unit b
vector 197 TimeSyncUEUE.TsnSwitchDataNetwork.eth[0].macLayer.outboundEmitter incomingPacketLengths:vector ETV
attr interpolationmode none
attr recordingmode vector
attr source "packetLength(merge(packetPushedIn, packetPulledIn))"
attr title "incoming packet lengths"
attr unit b
vector 198 TimeSyncUEUE.TsnSwitchDataNetwork.eth[0].macLayer.outboundEmitter outgoingPacketLengths:vector ETV
attr interpolationmode none
attr recordingmode vector
attr source "packetLength(merge(packetPushedOut, packetPulledOut))"
attr title "outgoing packet lengths"
attr unit b
vector 199 TimeSyncUEUE.TsnSwitchDataNetwork.eth[0].phyLayer.phyHeaderInserter incomingPacketLengths:vector ETV
attr interpolationmode none
attr recordingmode vector
attr source "packetLength(merge(packetPushedIn, packetPulledIn))"
attr title "incoming packet lengths"
attr unit b
vector 200 TimeSyncUEUE.TsnSwitchDataNetwork.eth[0].phyLayer.phyHeaderInserter outgoingPacketLengths:vector ETV
attr interpolationmode none
attr recordingmode vector
attr source "packetLength(merge(packetPushedOut, packetPulledOut))"
attr title "outgoing packet lengths"
attr unit b
vector 201 TimeSyncUEUE.TsnSwitchDataNetwork.eth[0].phyLayer.outboundEmitter incomingPacketLengths:vector ETV
attr interpolationmode none
attr recordingmode vector
attr source "packetLength(merge(packetPushedIn, packetPulledIn))"
attr title "incoming packet lengths"
attr unit b
vector 202 TimeSyncUEUE.TsnSwitchDataNetwork.eth[0].phyLayer.outboundEmitter outgoingPacketLengths:vector ETV
attr interpolationmode none
attr recordingmode vector
attr source "packetLength(merge(packetPushedOut, packetPulledOut))"
attr title "outgoing packet lengths"
attr unit b
vector 203 TimeSyncUEUE.FGS.dstt[0].eth[0].macLayer.queue queueingTime:vector ETV
attr interpolationmode none
attr recordingmode vector
attr source queueingTime(packetPulled)
attr title "queueing times"
attr unit s
vector 204 TimeSyncUEUE.FGS.dstt[0].eth[0].macLayer.queue outgoingPacketLengths:vector ETV
attr interpolationmode none
attr recordingmode vector
attr source packetLength(packetPulled)
attr title "outgoing packet lengths"
attr unit b
vector 205 TimeSyncUEUE.FGS.dstt[0].eth[0].macLayer.server incomingPacketLengths:vector ETV
attr interpolationmode none
attr recordingmode vector
attr source packetLength(packetPulled)
attr title "incoming packet lengths"
attr unit b
vector 206 TimeSyncUEUE.FGS.dstt[0].eth[0].macLayer.server outgoingPacketLengths:vector ETV
attr interpolationmode none
attr recordingmode vector
attr source packetLength(packetPushed)
attr title "outgoing packet lengths"
attr unit b
vector 207 TimeSyncUEUE.FGS.dstt[0].eth[0].macLayer.outboundEmitter incomingPacketLengths:vector ETV
attr interpolationmode none
attr recordingmode vector
attr source "packetLength(merge(packetPushedIn, packetPulledIn))"
attr title "incoming packet lengths"
attr unit b
vector 208 TimeSyncUEUE.FGS.dstt[0].eth[0].macLayer.outboundEmitter outgoingPacketLengths:vector ETV
attr interpolationmode none
attr recordingmode vector
attr source "packetLength(merge(packetPushedOut, packetPulledOut))"
attr title "outgoing packet lengths"
attr unit b
vector 209 TimeSyncUEUE.FGS.dstt[0].eth[0].phyLayer.phyHeaderInserter incomingPacketLengths:vector ETV
attr interpolationmode none
attr recordingmode vector
attr source "packetLength(merge(packetPushedIn, packetPulledIn))"
attr title "incoming packet lengths"
attr unit b
vector 210 TimeSyncUEUE.FGS.dstt[0].eth[0].phyLayer.phyHeaderInserter outgoingPacketLengths:vector ETV
attr interpolationmode none
attr recordingmode vector
attr source "packetLength(merge(packetPushedOut, packetPulledOut))"
attr title "outgoing packet lengths"
attr unit b
vector 211 TimeSyncUEUE.FGS.dstt[0].eth[0].phyLayer.outboundEmitter incomingPacketLengths:vector ETV
attr interpolationmode none
attr recordingmode vector
attr source "packetLength(merge(packetPushedIn, packetPulledIn))"
attr title "incoming packet lengths"
attr unit b
vector 212 TimeSyncUEUE.FGS.dstt[0].eth[0].phyLayer.outboundEmitter outgoingPacketLengths:vector ETV
attr interpolationmode none
attr recordingmode vector
attr source "packetLength(merge(packetPushedOut, packetPulledOut))"
attr title "outgoing packet lengths"
attr unit b
vector 213 TimeSyncUEUE.FGS.dstt[1].eth[0].macLayer.queue queueingTime:vector ETV
attr interpolationmode none
attr recordingmode vector
attr source queueingTime(packetPulled)
attr title "queueing times"
attr unit s
vector 214 TimeSyncUEUE.FGS.dstt[1].eth[0].macLayer.queue outgoingPacketLengths:vector ETV
attr interpolationmode none
attr recordingmode vector
attr source packetLength(packetPulled)
attr title "outgoing packet lengths"
attr unit b
vector 215 TimeSyncUEUE.FGS.dstt[1].eth[0].macLayer.server incomingPacketLengths:vector ETV
attr interpolationmode none
attr recordingmode vector
attr source packetLength(packetPulled)
attr title "incoming packet lengths"
attr unit b
vector 216 TimeSyncUEUE.FGS.dstt[1].eth[0].macLayer.server outgoingPacketLengths:vector ETV
attr interpolationmode none
attr recordingmode vector
attr source packetLength(packetPushed)
attr title "outgoing packet lengths"
attr unit b
vector 217 TimeSyncUEUE.FGS.dstt[1].eth[0].macLayer.outboundEmitter incomingPacketLengths:vector ETV
attr interpolationmode none
attr recordingmode vector
attr source "packetLength(merge(packetPushedIn, packetPulledIn))"
attr title "incoming packet lengths"
attr unit b
vector 218 TimeSyncUEUE.FGS.dstt[1].eth[0].macLayer.outboundEmitter outgoingPacketLengths:vector ETV
attr interpolationmode none
attr recordingmode vector
attr source "packetLength(merge(packetPushedOut, packetPulledOut))"
attr title "outgoing packet lengths"
attr unit b
vector 219 TimeSyncUEUE.FGS.dstt[1].eth[0].phyLayer.phyHeaderInserter incomingPacketLengths:vector ETV
attr interpolationmode none
attr recordingmode vector
attr source "packetLength(merge(packetPushedIn, packetPulledIn))"
attr title "incoming packet lengths"
attr unit b
vector 220 TimeSyncUEUE.FGS.dstt[1].eth[0].phyLayer.phyHeaderInserter outgoingPacketLengths:vector ETV
attr interpolationmode none
attr recordingmode vector
attr source "packetLength(merge(packetPushedOut, packetPulledOut))"
attr title "outgoing packet lengths"
attr unit b
vector 221 TimeSyncUEUE.FGS.dstt[1].eth[0].phyLayer.outboundEmitter incomingPacketLengths:vector ETV
attr interpolationmode none
attr recordingmode vector
attr source "packetLength(merge(packetPushedIn, packetPulledIn))"
attr title "incoming packet lengths"
attr unit b
vector 222 TimeSyncUEUE.FGS.dstt[1].eth[0].phyLayer.outboundEmitter outgoingPacketLengths:vector ETV
attr interpolationmode none
attr recordingmode vector
attr source "packetLength(merge(packetPushedOut, packetPulledOut))"
attr title "outgoing packet lengths"
attr unit b
vector 223 TimeSyncUEUE.TsnSwitchDataNetwork.eth[0].phyLayer.transmitter transmissionTime:vector ETV
attr interpolationmode none
attr recordingmode vector
attr source packetDuration(transmissionEnded)
attr title "transmission time"
attr unit s
vector 224 TimeSyncUEUE.FGS.dstt[0].eth[0].phyLayer.transmitter transmissionTime:vector ETV
attr interpolationmode none
attr recordingmode vector
attr source packetDuration(transmissionEnded)
attr title "transmission time"
attr unit s
vector 225 TimeSyncUEUE.FGS.dstt[1].eth[0].phyLayer.transmitter transmissionTime:vector ETV
attr interpolationmode none
attr recordingmode vector
attr source packetDuration(transmissionEnded)
attr title "transmission time"
attr unit s
vector 226 TimeSyncUEUE.FGS.nwtt[0].eth[0].phyLayer.receiver receptionTime:vector ETV
attr interpolationmode none
attr recordingmode vector
attr source packetDuration(receptionEnded)
attr title "reception time"
attr unit s
vector 227 TimeSyncUEUE.FGS.nwtt[0].eth[0].phyLayer.inboundEmitter incomingPacketLengths:vector ETV
attr interpolationmode none
attr recordingmode vector
attr source "packetLength(merge(packetPushedIn, packetPulledIn))"
attr title "incoming packet lengths"
attr unit b
vector 228 TimeSyncUEUE.FGS.nwtt[0].eth[0].phyLayer.inboundEmitter outgoingPacketLengths:vector ETV
attr interpolationmode none
attr recordingmode vector
attr source "packetLength(merge(packetPushedOut, packetPulledOut))"
attr title "outgoing packet lengths"
attr unit b
vector 229 TimeSyncUEUE.FGS.nwtt[0].eth[0].phyLayer.phyHeaderChecker incomingPacketLengths:vector ETV
attr interpolationmode none
attr recordingmode vector
attr source "packetLength(merge(packetPushedIn, packetPulledIn))"
attr title "incoming packet lengths"
attr unit b
vector 230 TimeSyncUEUE.FGS.nwtt[0].eth[0].phyLayer.phyHeaderChecker outgoingPacketLengths:vector ETV
attr interpolationmode none
attr recordingmode vector
attr source "packetLength(merge(packetPushedOut, packetPulledOut))"
attr title "outgoing packet lengths"
attr unit b
vector 231 TimeSyncUEUE.FGS.nwtt[0].eth[0].macLayer.inboundEmitter incomingPacketLengths:vector ETV
attr interpolationmode none
attr recordingmode vector
attr source "packetLength(merge(packetPushedIn, packetPulledIn))"
attr title "incoming packet lengths"
attr unit b
vector 232 TimeSyncUEUE.FGS.nwtt[0].eth[0].macLayer.inboundEmitter outgoingPacketLengths:vector ETV
attr interpolationmode none
attr recordingmode vector
attr source "packetLength(merge(packetPushedOut, packetPulledOut))"
attr title "outgoing packet lengths"
attr unit b
vector 233 TimeSyncUEUE.FGS.nwtt[0].eth[0].macLayer.fcsChecker incomingPacketLengths:vector ETV
attr interpolationmode none
attr recordingmode vector
attr source "packetLength(merge(packetPushedIn, packetPulledIn))"
attr title "incoming packet lengths"
attr unit b
vector 234 TimeSyncUEUE.FGS.nwtt[0].eth[0].macLayer.fcsChecker outgoingPacketLengths:vector ETV
attr interpolationmode none
attr recordingmode vector
attr source "packetLength(merge(packetPushedOut, packetPulledOut))"
attr title "outgoing packet lengths"
attr unit b
vector 235 TimeSyncUEUE.FGS.nwtt[0].ethernet.fcsChecker incomingPacketLengths:vector ETV
attr interpolationmode none
attr recordingmode vector
attr source "packetLength(merge(packetPushedIn, packetPulledIn))"
attr title "incoming packet lengths"
attr unit b
vector 236 TimeSyncUEUE.FGS.nwtt[0].ethernet.fcsChecker outgoingPacketLengths:vector ETV
attr interpolationmode none
attr recordingmode vector
attr source "packetLength(merge(packetPushedOut, packetPulledOut))"
attr title "outgoing packet lengths"
attr unit b
vector 237 TimeSyncUEUE.FGS.nwtt[0].ethernet.macHeaderChecker incomingPacketLengths:vector ETV
attr interpolationmode none
attr recordingmode vector
attr source "packetLength(merge(packetPushedIn, packetPulledIn))"
attr title "incoming packet lengths"
attr unit b
vector 238 TimeSyncUEUE.FGS.nwtt[0].ethernet.macHeaderChecker outgoingPacketLengths:vector ETV
attr interpolationmode none
attr recordingmode vector
attr source "packetLength(merge(packetPushedOut, packetPulledOut))"
attr title "outgoing packet lengths"
attr unit b
vector 239 TimeSyncUEUE.FGS.nwtt[0].bridging.interfaceRelay.learner incomingPacketLengths:vector ETV
attr interpolationmode none
attr recordingmode vector
attr source "packetLength(merge(packetPushedIn, packetPulledIn))"
attr title "incoming packet lengths"
attr unit b
vector 240 TimeSyncUEUE.FGS.nwtt[0].bridging.interfaceRelay.learner outgoingPacketLengths:vector ETV
attr interpolationmode none
attr recordingmode vector
attr source "packetLength(merge(packetPushedOut, packetPulledOut))"
attr title "outgoing packet lengths"
attr unit b
vector 241 TimeSyncUEUE.FGS.nwtt[0].bridging.streamCoder.decoder incomingPacketLengths:vector ETV
attr interpolationmode none
attr recordingmode vector
attr source "packetLength(merge(packetPushedIn, packetPulledIn))"
attr title "incoming packet lengths"
attr unit b
vector 242 TimeSyncUEUE.FGS.nwtt[0].bridging.streamCoder.decoder outgoingPacketLengths:vector ETV
attr interpolationmode none
attr recordingmode vector
attr source "packetLength(merge(packetPushedOut, packetPulledOut))"
attr title "outgoing packet lengths"
attr unit b
vector 243 TimeSyncUEUE.FGS.nwtt[0].gptp.classifier packetLengths:vector ETV
attr interpolationmode none
attr recordingmode vector
attr source packetLength(packetPushed)
attr title "packet lengths"
attr unit b
vector 244 TimeSyncUEUE.TsnSwitchDomain1.eth[0].phyLayer.receiver receptionTime:vector ETV
attr interpolationmode none
attr recordingmode vector
attr source packetDuration(receptionEnded)
attr title "reception time"
attr unit s
vector 245 TimeSyncUEUE.TsnSwitchDomain1.eth[0].phyLayer.inboundEmitter incomingPacketLengths:vector ETV
attr interpolationmode none
attr recordingmode vector
attr source "packetLength(merge(packetPushedIn, packetPulledIn))"
attr title "incoming packet lengths"
attr unit b
vector 246 TimeSyncUEUE.TsnSwitchDomain1.eth[0].phyLayer.inboundEmitter outgoingPacketLengths:vector ETV
attr interpolationmode none
attr recordingmode vector
attr source "packetLength(merge(packetPushedOut, packetPulledOut))"
attr title "outgoing packet lengths"
attr unit b
vector 247 TimeSyncUEUE.TsnSwitchDomain1.eth[0].phyLayer.phyHeaderChecker incomingPacketLengths:vector ETV
attr interpolationmode none
attr recordingmode vector
attr source "packetLength(merge(packetPushedIn, packetPulledIn))"
attr title "incoming packet lengths"
attr unit b
vector 248 TimeSyncUEUE.TsnSwitchDomain1.eth[0].phyLayer.phyHeaderChecker outgoingPacketLengths:vector ETV
attr interpolationmode none
attr recordingmode vector
attr source "packetLength(merge(packetPushedOut, packetPulledOut))"
attr title "outgoing packet lengths"
attr unit b
vector 249 TimeSyncUEUE.TsnSwitchDomain1.eth[0].macLayer.inboundEmitter incomingPacketLengths:vector ETV
attr interpolationmode none
attr recordingmode vector
attr source "packetLength(merge(packetPushedIn, packetPulledIn))"
attr title "incoming packet lengths"
attr unit b
vector 250 TimeSyncUEUE.TsnSwitchDomain1.eth[0].macLayer.inboundEmitter outgoingPacketLengths:vector ETV
attr interpolationmode none
attr recordingmode vector
attr source "packetLength(merge(packetPushedOut, packetPulledOut))"
attr title "outgoing packet lengths"
attr unit b
vector 251 TimeSyncUEUE.TsnSwitchDomain1.eth[0].macLayer.fcsChecker incomingPacketLengths:vector ETV
attr interpolationmode none
attr recordingmode vector
attr source "packetLength(merge(packetPushedIn, packetPulledIn))"
attr title "incoming packet lengths"
attr unit b
vector 252 TimeSyncUEUE.TsnSwitchDomain1.eth[0].macLayer.fcsChecker outgoingPacketLengths:vector ETV
attr interpolationmode none
attr recordingmode vector
attr source "packetLength(merge(packetPushedOut, packetPulledOut))"
attr title "outgoing packet lengths"
attr unit b
vector 253 TimeSyncUEUE.TsnSwitchDomain1.ethernet.fcsChecker incomingPacketLengths:vector ETV
attr interpolationmode none
attr recordingmode vector
attr source "packetLength(merge(packetPushedIn, packetPulledIn))"
attr title "incoming packet lengths"
attr unit b
vector 254 TimeSyncUEUE.TsnSwitchDomain1.ethernet.fcsChecker outgoingPacketLengths:vector ETV
attr interpolationmode none
attr recordingmode vector
attr source "packetLength(merge(packetPushedOut, packetPulledOut))"
attr title "outgoing packet lengths"
attr unit b
vector 255 TimeSyncUEUE.TsnSwitchDomain1.ethernet.macHeaderChecker incomingPacketLengths:vector ETV
attr interpolationmode none
attr recordingmode vector
attr source "packetLength(merge(packetPushedIn, packetPulledIn))"
attr title "incoming packet lengths"
attr unit b
vector 256 TimeSyncUEUE.TsnSwitchDomain1.ethernet.macHeaderChecker outgoingPacketLengths:vector ETV
attr interpolationmode none
attr recordingmode vector
attr source "packetLength(merge(packetPushedOut, packetPulledOut))"
attr title "outgoing packet lengths"
attr unit b
vector 257 TimeSyncUEUE.TsnSwitchDomain2.eth[0].phyLayer.receiver receptionTime:vector ETV
attr interpolationmode none
attr recordingmode vector
attr source packetDuration(receptionEnded)
attr title "reception time"
attr unit s
vector 258 TimeSyncUEUE.TsnSwitchDomain2.eth[0].phyLayer.inboundEmitter incomingPacketLengths:vector ETV
attr interpolationmode none
attr recordingmode vector
attr source "packetLength(merge(packetPushedIn, packetPulledIn))"
attr title "incoming packet lengths"
attr unit b
vector 259 TimeSyncUEUE.TsnSwitchDomain2.eth[0].phyLayer.inboundEmitter outgoingPacketLengths:vector ETV
attr interpolationmode none
attr recordingmode vector
attr source "packetLength(merge(packetPushedOut, packetPulledOut))"
attr title "outgoing packet lengths"
attr unit b
vector 260 TimeSyncUEUE.TsnSwitchDomain2.eth[0].phyLayer.phyHeaderChecker incomingPacketLengths:vector ETV
attr interpolationmode none
attr recordingmode vector
attr source "packetLength(merge(packetPushedIn, packetPulledIn))"
attr title "incoming packet lengths"
attr unit b
vector 261 TimeSyncUEUE.TsnSwitchDomain2.eth[0].phyLayer.phyHeaderChecker outgoingPacketLengths:vector ETV
attr interpolationmode none
attr recordingmode vector
attr source "packetLength(merge(packetPushedOut, packetPulledOut))"
attr title "outgoing packet lengths"
attr unit b
vector 262 TimeSyncUEUE.TsnSwitchDomain2.eth[0].macLayer.inboundEmitter incomingPacketLengths:vector ETV
attr interpolationmode none
attr recordingmode vector
attr source "packetLength(merge(packetPushedIn, packetPulledIn))"
attr title "incoming packet lengths"
attr unit b
vector 263 TimeSyncUEUE.TsnSwitchDomain2.eth[0].macLayer.inboundEmitter outgoingPacketLengths:vector ETV
attr interpolationmode none
attr recordingmode vector
attr source "packetLength(merge(packetPushedOut, packetPulledOut))"
attr title "outgoing packet lengths"
attr unit b
vector 264 TimeSyncUEUE.TsnSwitchDomain2.eth[0].macLayer.fcsChecker incomingPacketLengths:vector ETV
attr interpolationmode none
attr recordingmode vector
attr source "packetLength(merge(packetPushedIn, packetPulledIn))"
attr title "incoming packet lengths"
attr unit b
vector 265 TimeSyncUEUE.TsnSwitchDomain2.eth[0].macLayer.fcsChecker outgoingPacketLengths:vector ETV
attr interpolationmode none
attr recordingmode vector
attr source "packetLength(merge(packetPushedOut, packetPulledOut))"
attr title "outgoing packet lengths"
attr unit b
vector 266 TimeSyncUEUE.TsnSwitchDomain2.ethernet.fcsChecker incomingPacketLengths:vector ETV
attr interpolationmode none
attr recordingmode vector
attr source "packetLength(merge(packetPushedIn, packetPulledIn))"
attr title "incoming packet lengths"
attr unit b
vector 267 TimeSyncUEUE.TsnSwitchDomain2.ethernet.fcsChecker outgoingPacketLengths:vector ETV
attr interpolationmode none
attr recordingmode vector
attr source "packetLength(merge(packetPushedOut, packetPulledOut))"
attr title "outgoing packet lengths"
attr unit b
vector 268 TimeSyncUEUE.TsnSwitchDomain2.ethernet.macHeaderChecker incomingPacketLengths:vector ETV
attr interpolationmode none
attr recordingmode vector
attr source "packetLength(merge(packetPushedIn, packetPulledIn))"
attr title "incoming packet lengths"
attr unit b
vector 269 TimeSyncUEUE.TsnSwitchDomain2.ethernet.macHeaderChecker outgoingPacketLengths:vector ETV
attr interpolationmode none
attr recordingmode vector
attr source "packetLength(merge(packetPushedOut, packetPulledOut))"
attr title "outgoing packet lengths"
attr unit b
vector 270 TimeSyncUEUE.FGS.nwtt[0].gptp.domain[0] peerDelay:vector ETV
attr interpolationmode sample-hold
attr recordingmode vector
vector 271 TimeSyncUEUE.TsnSwitchDomain1.gptp peerDelay:vector ETV
attr interpolationmode sample-hold
attr recordingmode vector
vector 272 TimeSyncUEUE.TsnSwitchDomain2.gptp peerDelay:vector ETV
attr interpolationmode sample-hold
attr recordingmode vector
vector 273 TimeSyncUEUE.FGS.nwtt[0].tt[0].macLayer.queue incomingPacketLengths:vector ETV
attr interpolationmode none
attr recordingmode vector
attr source packetLength(packetPushStarted)
attr title "incoming packet lengths"
attr unit b
vector 274 TimeSyncUEUE.FGS.nwtt[0].tt[0].macLayer.queue queueingTime:vector ETV
attr interpolationmode none
attr recordingmode vector
attr source queueingTime(packetPulled)
attr title "queueing times"
attr unit s
vector 275 TimeSyncUEUE.FGS.nwtt[0].tt[0].macLayer.queue outgoingPacketLengths:vector ETV
attr interpolationmode none
attr recordingmode vector
attr source packetLength(packetPulled)
attr title "outgoing packet lengths"
attr unit b
vector 276 TimeSyncUEUE.FGS.nwtt[0].tt[0].macLayer.server incomingPacketLengths:vector ETV
attr interpolationmode none
attr recordingmode vector
attr source packetLength(packetPulled)
attr title "incoming packet lengths"
attr unit b
vector 277 TimeSyncUEUE.FGS.nwtt[0].tt[0].macLayer.server outgoingPacketLengths:vector ETV
attr interpolationmode none
attr recordingmode vector
attr source packetLength(packetPushed)
attr title "outgoing packet lengths"
attr unit b
vector 278 TimeSyncUEUE.FGS.nwtt[0].tt[0].macLayer.outboundEmitter incomingPacketLengths:vector ETV
attr interpolationmode none
attr recordingmode vector
attr source "packetLength(merge(packetPushedIn, packetPulledIn))"
attr title "incoming packet lengths"
attr unit b
vector 279 TimeSyncUEUE.FGS.nwtt[0].tt[0].macLayer.outboundEmitter outgoingPacketLengths:vector ETV
attr interpolationmode none
attr recordingmode vector
attr source "packetLength(merge(packetPushedOut, packetPulledOut))"
attr title "outgoing packet lengths"
attr unit b
vector 280 TimeSyncUEUE.FGS.nwtt[0].tt[0].phyLayer.phyHeaderInserter incomingPacketLengths:vector ETV
attr interpolationmode none
attr recordingmode vector
attr source "packetLength(merge(packetPushedIn, packetPulledIn))"
attr title "incoming packet lengths"
attr unit b
vector 281 TimeSyncUEUE.FGS.nwtt[0].tt[0].phyLayer.phyHeaderInserter outgoingPacketLengths:vector ETV
attr interpolationmode none
attr recordingmode vector
attr source "packetLength(merge(packetPushedOut, packetPulledOut))"
attr title "outgoing packet lengths"
attr unit b
vector 282 TimeSyncUEUE.FGS.nwtt[0].tt[0].phyLayer.outboundEmitter incomingPacketLengths:vector ETV
attr interpolationmode none
attr recordingmode vector
attr source "packetLength(merge(packetPushedIn, packetPulledIn))"
attr title "incoming packet lengths"
attr unit b
[...]
337	7691718 25422 2492 44979 5.50014885 100 946 -509.29180749297 14720 8180450.7081925 80399900978.145
338	7717140 30851 2507 44947 5.507774110802 99.807774110802 944 0 0.1856 117.0704 15.82699264
339	7747991 28801 2517 44943 5.512810156936 99.812810156936 944 -501.90930726978 18240 8050058.0906927 85179848712.953
340	7776792 28801 2517 44943 5.512810156936 99.812810156936 944 -501.90930726978 18240 8050058.0906927 85179848712.953
341	7805593 28801 2518 44945 5.512810156936 99.812810156936 944 -501.90930726978 18240 8050058.0906927 85179848712.953
342	7834394 29431 2518 44945 5.512810156936 99.812810156936 944 -620.4438940069 22720 9949459.556106 130503245750.63
343	7863825 29431 2518 44945 5.512810156936 99.812810156936 944 -620.4438940069 22720 9949459.556106 130503245750.63
344	7893256 29432 2518 44945 5.512810156936 99.812810156936 944 -627.89463945895 22880 10070092.105361 133542947851.68
345	7922688 29432 2518 44945 5.512810156936 99.812810156936 944 -627.89463945895 22880 10070092.105361 133542947851.68
346	7952120 29432 2518 44945 5.512810156936 99.812810156936 944 -661.76166424099 24160 10612778.238336 148433794728.5
347	7981552 29480 2518 44979 5.512810156936 100 946 -661.76166424099 24160 10625418.238336 148593564328.5
348	8011032 29480 2519 44979 5.512810156936 100 946 -661.76166424099 24160 10625418.238336 148593564328.5
349	8040512 29480 2519 44979 5.512810156936 100 946 -661.76166424099 24160 10625418.238336 148593564328.5
350	8069992 29480 2519 44979 5.512810156936 100 946 -661.76166424099 24160 10625418.238336 148593564328.5
351	8099472 29432 2519 44947 5.512810156936 99.812810156936 944 -661.76166424099 24160 10612778.238336 148433794728.5
352	8128904 29432 2519 44947 5.512810156936 99.812810156936 944 -661.76166424099 24160 10612778.238336 148433794728.5
353	8158336 29432 2519 44947 5.512810156936 99.812810156936 944 -661.76166424099 24160 10612778.238336 148433794728.5
354	8187768 29432 2519 44947 5.512810156936 99.812810156936 944 -729.49571380506 26720 11698150.504286 180582164164
355	8217200 29432 2519 44947 5.512810156936 99.812810156936 944 -729.49571380506 26720 11698150.504286 180582164164
356	8246632 29432 2519 44947 5.512810156936 99.812810156936 944 -729.49571380506 26720 11698150.504286 180582164164
357	8276064 29479 2520 44979 5.512891756936 100 946 -729.49634380476 26720 11712070.503656 180829383364.92
358	8305543 29479 2521 44979 5.512891806936 100 946 -729.49634419079 26720 11712070.503656 180829383364.92
359	8335022 29431 2521 44949 5.512891806936 99.812891806936 944 -729.49634419079 26720 11698150.503656 180635616964.92
360	8364453 29431 2521 44949 5.512891806936 99.812891806936 944 -729.49634419079 26720 11698150.503656 180635616964.92
361	8393884 29431 2521 44949 5.512891806936 99.812891806936 944 -729.49634419079 26720 11698150.503656 180635616964.92
362	8423315 29431 2521 44949 5.512891806936 99.812891806936 944 -661.76223609508 24160 10612778.237764 148474754729.26
363	8452746 29431 2521 44949 5.512891806936 99.812891806936 944 -661.76223609508 24160 10612778.237764 148474754729.26
364	8482177 29431 2521 44949 5.512891806936 99.812891806936 944 -661.76223609508 24160 10612778.237764 148474754729.26
365	8511608 29431 2521 44949 5.512891806936 99.812891806936 944 -661.76223609508 24160 10612778.237764 148474754729.26
366	8541039 29431 2521 44949 5.512891806936 99.812891806936 944 -661.76223609508 24160 10612778.237764 148474754729.26
367	8570470 29431 2521 44949 5.512891806936 99.812891806936 944 -661.76223609508 24160 10612778.237764 148474754729.26
368	8599901 29431 2521 44949 5.512891806936 99.812891806936 944 -627.89518204723 22880 10070092.104818 133578275852.36
369	8629332 29431 2521 44949 5.512891806936 99.812891806936 944 -627.89518204723 22880 10070092.104818 133578275852.36
370	8658763 28802 2521 44949 5.512891806936 99.812891806936 944 -509.36049287974 18400 8170690.6395071 87656349048.112
371	8687565 29028 2641 44972 5.879832822769 99.979832822769 942 -506.92642640718 13920 7624773.0735736 71835853774.402
372	8716593 29028 2641 44972 5.879832822769 99.979832822769 942 -506.92642640718 13920 7624773.0735736 71835853774.402
373	8745621 29028 2644 44976 5.879832822769 99.979832822769 942 -506.92642640718 13920 7624773.0735736 71835853774.402
374	8774649 29522 2644 44976 5.879832822769 99.979832822769 942 -625.92324011778 17280 9414414.0767599 109352942179.9
375	8804171 29522 2644 44976 5.879832822769 99.979832822769 942 -625.92324011778 17280 9414414.0767599 109352942179.9
376	8833693 29522 2644 44976 5.879832822769 99.979832822769 942 -633.91302618121 17440 9534726.0869738 112007160245.72
377	8863215 29522 2644 44976 5.879832822769 99.979832822769 942 -633.91302618121 17440 9534726.0869738 112007160245.72
378	8892737 29522 2644 44976 5.879832822769 99.979832822769 942 -667.91211581281 18400 10046052.087884 124324695706.59
379	8922259 29478 2654 44954 5.884731950115 99.884731950115 941 -667.94688367332 18400 10038532.053116 124807178953.04
380	8951737 29478 2654 44954 5.884731950115 99.884731950115 941 -633.94602423462 17440 9527526.0539758 112439160287.56
381	8981215 29478 2654 44954 5.884731950115 99.884731950115 941 -633.94602423462 17440 9527526.0539758 112439160287.56
382	9010693 28977 2654 44954 5.884731950115 99.884731950115 941 -514.94301619916 14080 7739005.0569838 74252399566.31
383	9039670 28977 2654 44954 5.884731950115 99.884731950115 941 -514.94301619916 14080 7739005.0569838 74252399566.31
384	9068647 28977 2654 44954 5.884731950115 99.884731950115 941 -514.94301619916 14080 7739005.0569838 74252399566.31
385	9097624 28977 2654 44954 5.884731950115 99.884731950115 941 -514.94301619916 14080 7739005.0569838 74252399566.31
386	9126601 28977 2654 44954 5.884731950115 99.884731950115 941 -514.94301619916 14080 7739005.0569838 74252399566.31
387	9155578 29024 2654 44979 5.884731950115 100 943 -514.94301619916 14080 7745085.0569838 74289365966.31
388	9184602 26041 2854 44937 6.254782284004 99.854782284004 937 0 0 0 0
389	9210643 29428 2859 44979 6.254782284004 100 939 -674.16772332287 12640 9466685.8322767 106808083302.12
390	9240071 29428 2861 44979 6.254782284004 100 939 -674.16772332287 12640 9466685.8322767 106808083302.12
391	9269499 29428 2861 44979 6.254782284004 100 939 -674.16772332287 12640 9466685.8322767 106808083302.12
392	9298927 29428 2861 44979 6.254782284004 100 939 -674.16772332287 12640 9466685.8322767 106808083302.12
393	9328355 29380 2861 44929 6.254782284004 99.854782284004 937 -674.16772332287 12640 9454045.8322767 106648313702.12
394	9357735 29380 2861 44929 6.254782284004 99.854782284004 937 -674.16772332287 12640 9454045.8322767 106648313702.12
395	9387115 29197 2868 44937 6.262225334649 99.862225334649 937 -674.22125419157 12640 9454045.7787458 113732755374.3
396	9416312 29197 2868 44937 6.262225334649 99.862225334649 937 -742.49682423629 13920 10411417.503176 137887578501.53
397	9445509 29197 2868 44937 6.262225334649 99.862225334649 937 -742.49682423629 13920 10411417.503176 137887578501.53
398	9474706 29197 2868 44937 6.262225334649 99.862225334649 937 -742.49682423629 13920 10411417.503176 137887578501.53
399	9503903 29245 2869 44979 6.262225334649 100 939 -742.49682423629 13920 10425337.503176 138081344901.53
400	9533148 29197 2869 44938 6.262225334649 99.862225334649 937 -742.49682423629 13920 10411417.503176 137887578501.53
401	9562345 29197 2869 44938 6.262225334649 99.862225334649 937 -742.49682423629 13920 10411417.503176 137887578501.53
402	9591542 29197 2869 44938 6.262225334649 99.862225334649 937 -742.49682423629 13920 10411417.503176 137887578501.53
403	9620739 29197 2869 44938 6.262225334649 99.862225334649 937 -674.22125419157 12640 9454045.7787458 113732755374.3
404	9649936 29197 2869 44938 6.262225334649 99.862225334649 937 -674.22125419157 12640 9454045.7787458 113732755374.3
405	9679133 29197 2869 44938 6.262225334649 99.862225334649 937 -674.22125419157 12640 9454045.7787458 113732755374.3
406	9708330 29197 2869 44938 6.262225334649 99.862225334649 937 -674.22125419157 12640 9454045.7787458 113732755374.3
407	9737527 29197 2869 44938 6.262225334649 99.862225334649 937 -674.22125419157 12640 9454045.7787458 113732755374.3
408	9766724 29245 2870 44979 6.262225334649 100 939 -742.49682423629 13920 10425337.503176 138081344901.53
409	9795969 12424 22066 44566 49.00013605 99.00013605 501 0 0.064 6.4 0.4096
410	9808393 12336 22068 44568 49.00013605 99.00013605 501 -847.06108318942 4320 426832.93891681 1848295112.4787
411	9820729 12336 22068 44568 49.00013605 99.00013605 501 -847.06108318942 4320 426832.93891681 1848295112.4787
412	9833065 12336 22070 44570 49.00013605 99.00013605 501 -847.06108318942 4320 426832.93891681 1848295112.4787
413	9845401 12336 22070 44570 49.00013605 99.00013605 501 -1066.6695121645 5440 537493.33048784 2930904183.8482
414	9857737 12336 22070 44570 49.00013605 99.00013605 501 -1066.6695121645 5440 537493.33048784 2930904183.8482
415	9870073 12336 22070 44570 49.00013605 99.00013605 501 -1066.6695121645 5440 537493.33048784 2930904183.8482
416	9882409 12336 22070 44570 49.00013605 99.00013605 501 -1066.6695121645 5440 537493.33048784 2930904183.8482
417	9894745 12336 22070 44570 49.00013605 99.00013605 501 -1129.4147775859 5760 569110.58522241 3285857977.7398
418	9907081 12571 22070 44979 49.00013605 100 511 -1129.4147775859 5760 574870.58522241 3319035577.7398
419	9919652 12571 22080 44979 49.00014565 100 511 -1129.4149901822 5760 574870.58500982 3319035578.22
420	9932223 12571 22080 44979 49.00014565 100 511 -1129.4149901822 5760 574870.58500982 3319035578.22
421	9944794 12571 22080 44979 49.00014565 100 511 -1129.4149901822 5760 574870.58500982 3319035578.22
422	9957365 12336 22080 44580 49.00014565 99.00014565 501 -1129.4149901822 5760 569110.58500982 3285857978.22
423	9969701 12336 22080 44580 49.00014565 99.00014565 501 -1129.4149901822 5760 569110.58500982 3285857978.22
424	9982037 12336 22080 44580 49.00014565 99.00014565 501 -1129.4149901822 5760 569110.58500982 3285857978.22
425	9994373 12336 22080 44580 49.00014565 99.00014565 501 -1254.9055446469 6400 632345.09445535 4056614787.926
426	10006709 12336 22080 44580 49.00014565 99.00014565 501 -1254.9055446469 6400 632345.09445535 4056614787.926
427	10019045 12336 22080 44580 49.00014565 99.00014565 501 -1254.9055446469 6400 632345.09445535 4056614787.926
428	10031381 12571 22087 44979 49.00020965 100 511 -1254.9071194368 6400 638745.09288056 4097574791.8784
429	10043952 12061 22089 44979 49.0002097 100 511 -1254.9071206671 6400 638745.09287933 4097574791.8815
430	10056013 11835 22089 44589 49.0002097 99.0002097 501 -1254.9071206671 6400 632345.09287933 4056614791.8815
431	10067848 11835 22089 44589 49.0002097 99.0002097 501 -1254.9071206671 6400 632345.09287933 4056614791.8815
432	10079683 11835 22089 44589 49.0002097 99.0002097 501 -1254.9071206671 6400 632345.09287933 4056614791.8815
433	10091518 11835 22089 44589 49.0002097 99.0002097 501 -1129.4164086004 5760 569110.5835914 3285857981.424
434	10103353 11835 22089 44589 49.0002097 99.0002097 501 -1129.4164086004 5760 569110.5835914 3285857981.424
435	10115188 11835 22089 44589 49.0002097 99.0002097 501 -1129.4164086004 5760 569110.5835914 3285857981.424
436	10127023 11835 22089 44589 49.0002097 99.0002097 501 -1129.4164086004 5760 569110.5835914 3285857981.424
437	10138858 11835 22089 44589 49.0002097 99.0002097 501 -1129.4164086004 5760 569110.5835914 3285857981.424
438	10150693 11835 22089 44589 49.0002097 99.0002097 501 -1129.4164086004 5760 569110.5835914 3285857981.424
439	10162528 11835 22089 44589 49.0002097 99.0002097 501 -1066.6710525671 5440 537493.32894743 2930904187.1344
440	10174363 11835 22089 44589 49.0002097 99.0002097 501 -1066.6710525671 5440 537493.32894743 2930904187.1344
441	10186198 11835 22089 44589 49.0002097 99.0002097 501 -847.06230645031 4320 426832.93769355 1848295114.551
442	10198033 444 44087 44974 98.000064 99.900064 20 0 0.064 0.064 0.004096
443	10198477 444 44088 44975 98.000064 99.900064 20 0 0.064 0.064 0.004096
444	10198921 444 44089 44978 98.000064 99.900064 20 0 0.064 0.064 0.004096
445	10199365 189 44520 44970 99 100 11 -43200 0 -43200 1866240000
446	10199554 189 44520 44970 99 100 11 -54400 0 -54400 2959360000
447	10199743 189 44520 44970 99 100 11 -54400 0 -54400 2959360000
448	10199932 189 44520 44970 99 100 11 -54400 0 -54400 2959360000
449	10200121 189 44520 44970 99 100 11 -54400 0 -54400 2959360000
450	10200310 189 44520 44970 99 100 11 -57600 0 -57600 3317760000
451	10200499 189 44520 44970 99 100 11 -57600 0 -57600 3317760000
452	10200688 189 44521 44971 99 100 11 -43200 0 -43200 1866240000
453	10200877 189 44521 44971 99 100 11 -54400 0 -54400 2959360000
454	10201066 189 44521 44971 99 100 11 -54400 0 -54400 2959360000
455	10201255 189 44521 44971 99 100 11 -54400 0 -54400 2959360000
456	10201444 189 44521 44971 99 100 11 -54400 0 -54400 2959360000
457	10201633 189 44521 44971 99 100 11 -57600 0 -57600 3317760000
458	10201822 189 44521 44971 99 100 11 -57600 0 -57600 3317760000
459	10202011 189 44524 44974 99 100 11 -57600 0 -57600 3317760000
460	10202200 189 44524 44974 99 100 11 -57600 0 -57600 3317760000
461	10202389 189 44524 44974 99 100 11 -57600 0 -57600 3317760000
462	10202578 189 44524 44974 99 100 11 -57600 0 -57600 3317760000
463	10202767 189 44524 44974 99 100 11 -57600 0 -57600 3317760000
464	10202956 189 44524 44974 99 100 11 -57600 0 -57600 3317760000
465	10203145 189 44524 44974 99 100 11 -64000 0 -64000 4096000000
466	10203334 189 44524 44974 99 100 11 -64000 0 -64000 4096000000
467	10203523 189 44524 44974 99 100 11 -64000 0 -64000 4096000000
468	10203712 189 44525 44975 99 100 11 -57600 0 -57600 3317760000
469	10203901 189 44525 44975 99 100 11 -57600 0 -57600 3317760000
470	10204090 189 44525 44975 99 100 11 -57600 0 -57600 3317760000
471	10204279 189 44525 44975 99 100 11 -57600 0 -57600 3317760000
472	10204468 189 44525 44975 99 100 11 -57600 0 -57600 3317760000
473	10204657 189 44525 44975 99 100 11 -57600 0 -57600 3317760000
474	10204846 189 44525 44975 99 100 11 -64000 0 -64000 4096000000
475	10205035 189 44525 44975 99 100 11 -64000 0 -64000 4096000000
476	10205224 189 44525 44975 99 100 11 -64000 0 -64000 4096000000
477	10205413 189 44526 44976 99 100 11 -57600 0 -57600 3317760000
478	10205602 189 44528 44978 99 100 11 -57600 0 -57600 3317760000
479	10205791 189 44528 44978 99 100 11 -57600 0 -57600 3317760000
480	10205980 189 44528 44978 99 100 11 -57600 0 -57600 3317760000
481	10206169 189 44528 44978 99 100 11 -57600 0 -57600 3317760000
482	10206358 189 44528 44978 99 100 11 -57600 0 -57600 3317760000
483	10206547 189 44528 44978 99 100 11 -57600 0 -57600 3317760000
484	10206736 189 44528 44978 99 100 11 -64000 0 -64000 4096000000
485	10206925 189 44528 44978 99 100 11 -64000 0 -64000 4096000000
486	10207114 189 44528 44978 99 100 11 -64000 0 -64000 4096000000
487	10207303 251 44537 44979 99.000064 100 11 -64004.096262161 0 -64004.096262161 4096524338.3359
488	10207554 251 44538 44979 99.000064 100 11 -64004.096262161 0 -64004.096262161 4096524338.3359
489	10207805 251 44539 44979 99.000064 100 11 -64004.096262161 0 -64004.096262161 4096524338.3359
490	10208056 271 44540 44979 99.00006405 100 11 -64004.099462571 0 -64004.099462571 4096524748.0146
491	10208327 39 44540 44540 99.00006405 99.00006405 1 -64004.099462571 -64004.099462571 -64004.099462571 4096524748.0146
492	10208366 39 44540 44540 99.00006405 99.00006405 1 -64004.099462571 -64004.099462571 -64004.099462571 4096524748.0146
493	10208405 39 44540 44540 99.00006405 99.00006405 1 -64004.099462571 -64004.099462571 -64004.099462571 4096524748.0146
494	10208444 39 44540 44540 99.00006405 99.00006405 1 -57603.689516314 -57603.689516314 -57603.689516314 3318185045.8918
495	10208483 39 44540 44540 99.00006405 99.00006405 1 -57603.689516314 -57603.689516314 -57603.689516314 3318185045.8918
496	10208522 39 44540 44540 99.00006405 99.00006405 1 -57603.689516314 -57603.689516314 -57603.689516314 3318185045.8918
497	10208561 39 44540 44540 99.00006405 99.00006405 1 -57603.689516314 -57603.689516314 -57603.689516314 3318185045.8918
498	10208600 39 44540 44540 99.00006405 99.00006405 1 -57603.689516314 -57603.689516314 -57603.689516314 3318185045.8918
499	10208639 271 44541 44979 99.00006405 100 11 -64004.099462571 0 -64004.099462571 4096524748.0146
500	10208910 39 44541 44541 99.00006405 99.00006405 1 -64004.099462571 -64004.099462571 -64004.099462571 4096524748.0146
501	10208949 39 44541 44541 99.00006405 99.00006405 1 -64004.099462571 -64004.099462571 -64004.099462571 4096524748.0146
502	10208988 39 44541 44541 99.00006405 99.00006405 1 -64004.099462571 -64004.099462571 -64004.099462571 4096524748.0146
503	10209027 39 44541 44541 99.00006405 99.00006405 1 -57603.689516314 -57603.689516314 -57603.689516314 3318185045.8918
504	10209066 39 44541 44541 99.00006405 99.00006405 1 -57603.689516314 -57603.689516314 -57603.689516314 3318185045.8918
505	10209105 39 44541 44541 99.00006405 99.00006405 1 -57603.689516314 -57603.689516314 -57603.689516314 3318185045.8918
506	10209144 39 44541 44541 99.00006405 99.00006405 1 -57603.689516314 -57603.689516314 -57603.689516314 3318185045.8918
507	10209183 39 44541 44541 99.00006405 99.00006405 1 -57603.689516314 -57603.689516314 -57603.689516314 3318185045.8918
508	10209222 39 44541 44541 99.00006405 99.00006405 1 -57603.689516314 -57603.689516314 -57603.689516314 3318185045.8918
509	10209261 39 44541 44541 99.00006405 99.00006405 1 -54403.484543185 -54403.484543185 -54403.484543185 2959739130.4406
510	10209300 39 44541 44541 99.00006405 99.00006405 1 -54403.484543185 -54403.484543185 -54403.484543185 2959739130.4406
511	10209339 39 44541 44541 99.00006405 99.00006405 1 -43202.767137235 -43202.767137235 -43202.767137235 1866479088.3142
512	10209378 39 44541 44541 99.00006405 99.00006405 1 -43202.767137235 -43202.767137235 -43202.767137235 1866479088.3142
513	10209417 39 44541 44541 99.00006405 99.00006405 1 -43202.767137235 -43202.767137235 -43202.767137235 1866479088.3142
514	10209456 39 44541 44541 99.00006405 99.00006405 1 -43202.767137235 -43202.767137235 -43202.767137235 1866479088.3142
515	10209495 39 44541 44541 99.00006405 99.00006405 1 -43202.767137235 -43202.767137235 -43202.767137235 1866479088.3142
516	10209534 271 44541 44979 99.00006405 100 11 -43202.767137235 0 -43202.767137235 1866479088.3142
517	10209805 271 44542 44979 99.00006405 100 11 -64004.099462571 0 -64004.099462571 4096524748.0146
518	10210076 39 44542 44542 99.00006405 99.00006405 1 -64004.099462571 -64004.099462571 -64004.099462571 4096524748.0146
519	10210115 39 44542 44542 99.00006405 99.00006405 1 -64004.099462571 -64004.099462571 -64004.099462571 4096524748.0146
520	10210154 39 44542 44542 99.00006405 99.00006405 1 -64004.099462571 -64004.099462571 -64004.099462571 4096524748.0146
521	10210193 39 44542 44542 99.00006405 99.00006405 1 -57603.689516314 -57603.689516314 -57603.689516314 3318185045.8918
522	10210232 39 44542 44542 99.00006405 99.00006405 1 -57603.689516314 -57603.689516314 -57603.689516314 3318185045.8918
523	10210271 39 44542 44542 99.00006405 99.00006405 1 -57603.689516314 -57603.689516314 -57603.689516314 3318185045.8918
524	10210310 39 44542 44542 99.00006405 99.00006405 1 -57603.689516314 -57603.689516314 -57603.689516314 3318185045.8918
525	10210349 39 44542 44542 99.00006405 99.00006405 1 -57603.689516314 -57603.689516314 -57603.689516314 3318185045.8918
526	10210388 39 44542 44542 99.00006405 99.00006405 1 -57603.689516314 -57603.689516314 -57603.689516314 3318185045.8918
527	10210427 39 44542 44542 99.00006405 99.00006405 1 -54403.484543185 -54403.484543185 -54403.484543185 2959739130.4406
528	10210466 39 44542 44542 99.00006405 99.00006405 1 -54403.484543185 -54403.484543185 -54403.484543185 2959739130.4406
529	10210505 39 44542 44542 99.00006405 99.00006405 1 -43202.767137235 -43202.767137235 -43202.767137235 1866479088.3142

