version 3
run DL4-0-20250105-21:04:52-126204
attr configname DL4
attr datetime 20250105-21:04:52
attr datetimef 20250105-210452
attr experiment DL4
attr inifile omnetppTest.ini
attr iterationvars ""
attr iterationvarsd ""
attr iterationvarsf ""
attr measurement ""
attr network TimeSyncUEUE
attr processid 126204
attr repetition 0
attr replication #0
attr resultdir results
attr runnumber 0
attr seedset 0
config image-path ../../../inet4.5-2/images
config extends DL
config *.FGS.**.clock.typename IdealClock
config *.TsnSwitchDataNetwork.clock.oscillator.typename RandomDriftOscillator
config **.clock.oscillator.typename ConstantDriftOscillator
config *.TsnSwitchDataNetwork.clock.oscillator.driftRate -100ppm
config *.TsnSwitchDataNetwork.clock.oscillator.changeInterval 12.5ms
config *.TsnSwitchDataNetwork.clock.oscillator.driftRateChange "uniform(-10ppm, 10ppm)"
config *.*.clock.oscillator.driftRate 00ppm
config *.TsnSwitchDataNetwork.gptp.gptpNodeType "\"MASTER_NODE\""
config *.TsnSwitchDataNetwork.gptp.masterPorts "[\"eth0\"]"
config *.TsnSwitchDataNetwork.gptp.slavePort "\"\""
config *.TsnSwitchDomain1.gptp.slavePort "\"eth0\""
config *.TsnSwitchDomain1.gptp.masterPorts []
config *.TsnSwitchDomain2.gptp.slavePort "\"eth0\""
config *.TsnSwitchDomain2.gptp.masterPorts []
config *.FGS.nwtt[*].gptp.domain[*].slavePort "\"eth0\""
config *.FGS.nwtt[*].gptp.domain[*].masterPorts "[\"tt0\"]"
config *.FGS.dstt[*].gptp.domain[*].slavePort "\"tt0\""
config *.FGS.dstt[*].gptp.domain[*].masterPorts "[\"eth0\"]"
config **.referenceClock "\"TsnSwitchDataNetwork.clock\""
config *.TsnSwitchDataNetwork.clock.displayStringTextFormat "\"time: %T\""
config *.TsnSwitchDomain1.clock.displayStringTextFormat "\"diff: %d\""
config *.TsnSwitchDomain2.clock.displayStringTextFormat "\"diff: %d\""
config network TimeSyncUEUE
config sim-time-limit 100s
config *.histogramContainer.histograms "{s1UL: \"../../../deterministic6g_data/PD-Wireless-5G-1/s1-UL_wall.xml\",\n\t\t\t\t\t\t\t\t\ts3UL: \"../../../deterministic6g_data/PD-Wireless-5G-1/s3-UL_wall.xml\",\n\t\t\t\t\t\t\t\t\ts4UL: \"../../../deterministic6g_data/PD-Wireless-5G-1/s4-UL_wall.xml\",\n\t\t\t\t\t\t\t\t\ts6UL: \"../../../deterministic6g_data/PD-Wireless-5G-1/s6-UL_wall.xml\",\n\t\t\t\t\t\t\t\t\ts7UL: \"../../../deterministic6g_data/PD-Wireless-5G-1/s7-UL_wall.xml\",\n\t\t\t\t\t\t\t\t\ts8UL: \"../../../deterministic6g_data/PD-Wireless-5G-1/s8-UL_wall.xml\",\n\t\t\t\t\t\t\t\t\ts9UL: \"../../../deterministic6g_data/PD-Wireless-5G-1/s9-UL_wall.xml\",\n\t\t\t\t\t\t\t\t\ts10DL: \"../../../deterministic6g_data/PD-Wireless-5G-1/s10-DL_wall.xml\",\n\t\t\t\t\t\t\t\t\ts19DL: \"../../../deterministic6g_data/PD-Wireless-5G-1/s19-DL_wall.xml\",\n\t\t\t\t\t\t\t\t\ts20UL: \"../../../deterministic6g_data/PD-Wireless-5G-1/s20-UL_wall.xml\",\n\t\t\t\t\t\t\t\t\ts22UL: \"../../../deterministic6g_data/PD-Wireless-5G-1/s22-UL_wall.xml\",\n\t\t\t\t\t\t\t\t\ts23DL: \"../../../deterministic6g_data/PD-Wireless-5G-1/s23-DL_wall.xml\",\n\t\t\t\t\t\t\t\t\ts24UL: \"../../../deterministic6g_data/PD-Wireless-5G-1/s24-UL_wall.xml\",\n\t\t\t\t\t\t\t\t\ts25DL: \"../../../deterministic6g_data/PD-Wireless-5G-1/s25-DL_wall.xml\",\n\t\t\t\t\t\t\t\t\ts26UL: \"../../../deterministic6g_data/PD-Wireless-5G-1/s26-UL_wall.xml\"}"
config *.FGS.d*.delayUplink "rngProvider(\"histogramContainer\",\"s1UL\")"
config *.FGS.n*.delayDownlink "rngProvider(\"histogramContainer\",\"s10DL\")"
config *.FGS.d*.delayD2D "rngProvider(\"histogramContainer\",\"s1UL\")+rngProvider(\"histogramContainer\",\"s10DL\")"
config *.**.hasTimeSynchronization true
config *.visualizer.typename IntegratedMultiCanvasVisualizer
config *.visualizer.infoVisualizer[*].displayInfos true
config *.visualizer.dataLinkVisualizer[0].displayLinks true
config *.visualizer.dataLinkVisualizer[0].activityLevel "\"protocol\""
config *.visualizer.dataLinkVisualizer[0].packetFilter "\"GptpSync\""
config *.visualizer.dataLinkVisualizer[0].lineColor "\"blue2\""
config *.visualizer.numInfoVisualizers 3
config *.visualizer.infoVisualizer[0].modules "\"*.TsnSwitchDataNetwork.clock\""
config *.visualizer.infoVisualizer[1].modules "\"*.TsnSwitchDomain1.clock\""
config *.visualizer.infoVisualizer[1].placementHint "\"topLeft\""
config *.visualizer.infoVisualizer[2].modules "\"*.TsnSwitchDomain2*.clock\""
config *.visualizer.infoVisualizer[2].placementHint "\"topRight\""

par TimeSyncUEUE.TsnSwitchDomain1.ethg$o[0].channel typename "\"inet.node.ethernet.Eth10M\""
par TimeSyncUEUE.TsnSwitchDomain1.ethg$o[0].channel disabled false
attr mutable ""
par TimeSyncUEUE.TsnSwitchDomain1.ethg$o[0].channel delay 5e-08s
attr mutable ""
attr unit s
par TimeSyncUEUE.TsnSwitchDomain1.ethg$o[0].channel datarate 1e+07bps
attr mutable ""
attr unit bps
par TimeSyncUEUE.TsnSwitchDomain1.ethg$o[0].channel ber 0
attr mutable ""
par TimeSyncUEUE.TsnSwitchDomain1.ethg$o[0].channel per 0
attr mutable ""
par TimeSyncUEUE.TsnSwitchDomain1.ethg$o[0].channel length 10m
attr unit m
par TimeSyncUEUE.FGS.dsttg$o[0].channel typename "\"inet.node.ethernet.Eth10M\""
par TimeSyncUEUE.FGS.dsttg$o[0].channel disabled false
attr mutable ""
par TimeSyncUEUE.FGS.dsttg$o[0].channel delay 5e-08s
attr mutable ""
attr unit s
par TimeSyncUEUE.FGS.dsttg$o[0].channel datarate 1e+07bps
attr mutable ""
attr unit bps
par TimeSyncUEUE.FGS.dsttg$o[0].channel ber 0
attr mutable ""
par TimeSyncUEUE.FGS.dsttg$o[0].channel per 0
attr mutable ""
par TimeSyncUEUE.FGS.dsttg$o[0].channel length 10m
attr unit m
par TimeSyncUEUE.TsnSwitchDomain2.ethg$o[0].channel typename "\"inet.node.ethernet.Eth10M\""
par TimeSyncUEUE.TsnSwitchDomain2.ethg$o[0].channel disabled false
attr mutable ""
par TimeSyncUEUE.TsnSwitchDomain2.ethg$o[0].channel delay 5e-08s
attr mutable ""
attr unit s
par TimeSyncUEUE.TsnSwitchDomain2.ethg$o[0].channel datarate 1e+07bps
attr mutable ""
attr unit bps
par TimeSyncUEUE.TsnSwitchDomain2.ethg$o[0].channel ber 0
attr mutable ""
par TimeSyncUEUE.TsnSwitchDomain2.ethg$o[0].channel per 0
attr mutable ""
par TimeSyncUEUE.TsnSwitchDomain2.ethg$o[0].channel length 10m
attr unit m
par TimeSyncUEUE.FGS.dsttg$o[1].channel typename "\"inet.node.ethernet.Eth10M\""
par TimeSyncUEUE.FGS.dsttg$o[1].channel disabled false
attr mutable ""
par TimeSyncUEUE.FGS.dsttg$o[1].channel delay 5e-08s
attr mutable ""
attr unit s
par TimeSyncUEUE.FGS.dsttg$o[1].channel datarate 1e+07bps
attr mutable ""
attr unit bps
par TimeSyncUEUE.FGS.dsttg$o[1].channel ber 0
attr mutable ""
par TimeSyncUEUE.FGS.dsttg$o[1].channel per 0
attr mutable ""
par TimeSyncUEUE.FGS.dsttg$o[1].channel length 10m
attr unit m
par TimeSyncUEUE.TsnSwitchDataNetwork.ethg$o[0].channel typename "\"inet.node.ethernet.Eth10M\""
par TimeSyncUEUE.TsnSwitchDataNetwork.ethg$o[0].channel disabled false
attr mutable ""
par TimeSyncUEUE.TsnSwitchDataNetwork.ethg$o[0].channel delay 5e-08s
attr mutable ""
attr unit s
par TimeSyncUEUE.TsnSwitchDataNetwork.ethg$o[0].channel datarate 1e+07bps
attr mutable ""
attr unit bps
par TimeSyncUEUE.TsnSwitchDataNetwork.ethg$o[0].channel ber 0
attr mutable ""
par TimeSyncUEUE.TsnSwitchDataNetwork.ethg$o[0].channel per 0
attr mutable ""
par TimeSyncUEUE.TsnSwitchDataNetwork.ethg$o[0].channel length 10m
attr unit m
par TimeSyncUEUE.FGS.nwttg$o[0].channel typename "\"inet.node.ethernet.Eth10M\""
par TimeSyncUEUE.FGS.nwttg$o[0].channel disabled false
attr mutable ""
par TimeSyncUEUE.FGS.nwttg$o[0].channel delay 5e-08s
attr mutable ""
attr unit s
par TimeSyncUEUE.FGS.nwttg$o[0].channel datarate 1e+07bps
attr mutable ""
attr unit bps
par TimeSyncUEUE.FGS.nwttg$o[0].channel ber 0
attr mutable ""
par TimeSyncUEUE.FGS.nwttg$o[0].channel per 0
attr mutable ""
par TimeSyncUEUE.FGS.nwttg$o[0].channel length 10m
attr unit m
par TimeSyncUEUE.visualizer.sceneVisualizer[0] typename "\"inet.visualizer.canvas.scene.SceneCanvasVisualizer\""
par TimeSyncUEUE.visualizer.sceneVisualizer[0] visualizationTargetModule "\"^.^\""
par TimeSyncUEUE.visualizer.sceneVisualizer[0] visualizationSubjectModule "\"^.^\""
par TimeSyncUEUE.visualizer.sceneVisualizer[0] tags "\"\""
par TimeSyncUEUE.visualizer.sceneVisualizer[0] physicalEnvironmentModule "\"physicalEnvironment\""
par TimeSyncUEUE.visualizer.sceneVisualizer[0] networkNodeVisualizerModule "\"TimeSyncUEUE.visualizer.networkNodeVisualizer[0]\""
par TimeSyncUEUE.visualizer.sceneVisualizer[0] axisLength "nan m"
attr mutable ""
attr unit m
par TimeSyncUEUE.visualizer.sceneVisualizer[0] animationSpeed 0
par TimeSyncUEUE.visualizer.sceneVisualizer[0] sceneMinX "nan m"
attr unit m
par TimeSyncUEUE.visualizer.sceneVisualizer[0] sceneMinY "nan m"
attr unit m
par TimeSyncUEUE.visualizer.sceneVisualizer[0] sceneMinZ "nan m"
attr unit m
par TimeSyncUEUE.visualizer.sceneVisualizer[0] sceneMaxX "nan m"
attr unit m
par TimeSyncUEUE.visualizer.sceneVisualizer[0] sceneMaxY "nan m"
attr unit m
par TimeSyncUEUE.visualizer.sceneVisualizer[0] sceneMaxZ "nan m"
attr unit m
par TimeSyncUEUE.visualizer.sceneVisualizer[0] zIndex 0
par TimeSyncUEUE.visualizer.sceneVisualizer[0] viewAngle "\"x right y down z out\""
attr mutable ""
par TimeSyncUEUE.visualizer.sceneVisualizer[0] viewScale "\"1 1\""
attr mutable ""
par TimeSyncUEUE.visualizer.sceneVisualizer[0] viewTranslation "\"0 0\""
attr mutable ""
par TimeSyncUEUE.visualizer.sceneVisualizer[0] descriptionFigure "\"\""
par TimeSyncUEUE.visualizer.physicalEnvironmentVisualizer[0] typename "\"inet.visualizer.canvas.environment.PhysicalEnvironmentCanvasVisualizer\""
par TimeSyncUEUE.visualizer.physicalEnvironmentVisualizer[0] visualizationTargetModule "\"^.^\""
par TimeSyncUEUE.visualizer.physicalEnvironmentVisualizer[0] visualizationSubjectModule "\"^.^\""
par TimeSyncUEUE.visualizer.physicalEnvironmentVisualizer[0] tags "\"\""
par TimeSyncUEUE.visualizer.physicalEnvironmentVisualizer[0] physicalEnvironmentModule "\"physicalEnvironment\""
par TimeSyncUEUE.visualizer.physicalEnvironmentVisualizer[0] displayObjects true
par TimeSyncUEUE.visualizer.physicalEnvironmentVisualizer[0] zIndex 0
par TimeSyncUEUE.visualizer.networkNodeVisualizer[0] typename "\"inet.visualizer.canvas.scene.NetworkNodeCanvasVisualizer\""
par TimeSyncUEUE.visualizer.networkNodeVisualizer[0] visualizationTargetModule "\"^.^\""
par TimeSyncUEUE.visualizer.networkNodeVisualizer[0] visualizationSubjectModule "\"^.^\""
par TimeSyncUEUE.visualizer.networkNodeVisualizer[0] tags "\"\""
par TimeSyncUEUE.visualizer.networkNodeVisualizer[0] nodeFilter "\"*\""
attr mutable ""
par TimeSyncUEUE.visualizer.networkNodeVisualizer[0] annotationSpacing 4
par TimeSyncUEUE.visualizer.networkNodeVisualizer[0] placementPenalty 10
par TimeSyncUEUE.visualizer.networkNodeVisualizer[0] zIndex 0
par TimeSyncUEUE.visualizer.networkConnectionVisualizer[0] typename "\"inet.visualizer.canvas.scene.NetworkConnectionCanvasVisualizer\""
par TimeSyncUEUE.visualizer.networkConnectionVisualizer[0] visualizationTargetModule "\"^.^\""
par TimeSyncUEUE.visualizer.networkConnectionVisualizer[0] visualizationSubjectModule "\"^.^\""
par TimeSyncUEUE.visualizer.networkConnectionVisualizer[0] tags "\"\""
par TimeSyncUEUE.visualizer.networkConnectionVisualizer[0] displayNetworkConnections true
par TimeSyncUEUE.visualizer.networkConnectionVisualizer[0] nodeFilter "\"\""
attr mutable ""
par TimeSyncUEUE.visualizer.networkConnectionVisualizer[0] lineColor "\"black\""
par TimeSyncUEUE.visualizer.networkConnectionVisualizer[0] lineStyle "\"solid\""
par TimeSyncUEUE.visualizer.networkConnectionVisualizer[0] lineWidth 1
par TimeSyncUEUE.visualizer.networkConnectionVisualizer[0] zIndex 0
par TimeSyncUEUE.visualizer.mobilityVisualizer[0] typename "\"inet.visualizer.canvas.mobility.MobilityCanvasVisualizer\""
par TimeSyncUEUE.visualizer.mobilityVisualizer[0] visualizationTargetModule "\"^.^\""
par TimeSyncUEUE.visualizer.mobilityVisualizer[0] visualizationSubjectModule "\"^.^\""
par TimeSyncUEUE.visualizer.mobilityVisualizer[0] tags "\"\""
par TimeSyncUEUE.visualizer.mobilityVisualizer[0] networkNodeVisualizerModule "\"TimeSyncUEUE.visualizer.networkNodeVisualizer[0]\""
par TimeSyncUEUE.visualizer.mobilityVisualizer[0] displayMobility true
par TimeSyncUEUE.visualizer.mobilityVisualizer[0] animationSpeed 0
par TimeSyncUEUE.visualizer.mobilityVisualizer[0] moduleFilter "\"**.mobility\""
attr mutable ""
par TimeSyncUEUE.visualizer.mobilityVisualizer[0] displayPositions false
par TimeSyncUEUE.visualizer.mobilityVisualizer[0] positionCircleRadius 4
par TimeSyncUEUE.visualizer.mobilityVisualizer[0] positionCircleLineWidth 1
par TimeSyncUEUE.visualizer.mobilityVisualizer[0] positionCircleLineColor "\"dark\""
attr enum light,dark
par TimeSyncUEUE.visualizer.mobilityVisualizer[0] positionCircleFillColor "\"dark\""
attr enum light,dark
par TimeSyncUEUE.visualizer.mobilityVisualizer[0] displayOrientations false
par TimeSyncUEUE.visualizer.mobilityVisualizer[0] orientationPieRadius 32
par TimeSyncUEUE.visualizer.mobilityVisualizer[0] orientationPieSize 0.2
par TimeSyncUEUE.visualizer.mobilityVisualizer[0] orientationPieOpacity 0.25
par TimeSyncUEUE.visualizer.mobilityVisualizer[0] orientationLineColor "\"black\""
par TimeSyncUEUE.visualizer.mobilityVisualizer[0] orientationLineStyle "\"solid\""
par TimeSyncUEUE.visualizer.mobilityVisualizer[0] orientationLineWidth 1
par TimeSyncUEUE.visualizer.mobilityVisualizer[0] orientationFillColor "\"blue\""
par TimeSyncUEUE.visualizer.mobilityVisualizer[0] displayVelocities false
par TimeSyncUEUE.visualizer.mobilityVisualizer[0] velocityArrowScale 1
par TimeSyncUEUE.visualizer.mobilityVisualizer[0] velocityLineColor "\"black\""
par TimeSyncUEUE.visualizer.mobilityVisualizer[0] velocityLineStyle "\"solid\""
par TimeSyncUEUE.visualizer.mobilityVisualizer[0] velocityLineWidth 1
par TimeSyncUEUE.visualizer.mobilityVisualizer[0] displayMovementTrails false
par TimeSyncUEUE.visualizer.mobilityVisualizer[0] movementTrailLineColor "\"dark\""
attr enum light,dark
par TimeSyncUEUE.visualizer.mobilityVisualizer[0] movementTrailLineStyle "\"solid\""
par TimeSyncUEUE.visualizer.mobilityVisualizer[0] movementTrailLineWidth 1
par TimeSyncUEUE.visualizer.mobilityVisualizer[0] trailLength 100
par TimeSyncUEUE.visualizer.mobilityVisualizer[0] zIndex 0
par TimeSyncUEUE.visualizer.statisticVisualizer[0] typename "\"inet.visualizer.canvas.common.StatisticCanvasVisualizer\""
par TimeSyncUEUE.visualizer.statisticVisualizer[0] visualizationTargetModule "\"^.^\""
par TimeSyncUEUE.visualizer.statisticVisualizer[0] visualizationSubjectModule "\"^.^\""
par TimeSyncUEUE.visualizer.statisticVisualizer[0] tags "\"\""
par TimeSyncUEUE.visualizer.statisticVisualizer[0] networkNodeVisualizerModule "\"TimeSyncUEUE.visualizer.networkNodeVisualizer[0]\""
par TimeSyncUEUE.visualizer.statisticVisualizer[0] displayStatistics true
par TimeSyncUEUE.visualizer.statisticVisualizer[0] signalName "\"\""
par TimeSyncUEUE.visualizer.statisticVisualizer[0] statisticName "\"\""
par TimeSyncUEUE.visualizer.statisticVisualizer[0] statisticUnit "\"\""
par TimeSyncUEUE.visualizer.statisticVisualizer[0] statisticExpression "\"\""
par TimeSyncUEUE.visualizer.statisticVisualizer[0] sourceFilter "\"**\""
attr mutable ""
par TimeSyncUEUE.visualizer.statisticVisualizer[0] format "\"%n: %v %u\""
attr mutable ""
par TimeSyncUEUE.visualizer.statisticVisualizer[0] unit "\"\""
par TimeSyncUEUE.visualizer.statisticVisualizer[0] font "\"<default>\""
par TimeSyncUEUE.visualizer.statisticVisualizer[0] textColor "\"black\""
par TimeSyncUEUE.visualizer.statisticVisualizer[0] backgroundColor "\"white\""
par TimeSyncUEUE.visualizer.statisticVisualizer[0] opacity 1
par TimeSyncUEUE.visualizer.statisticVisualizer[0] placementHint "\"top\""
par TimeSyncUEUE.visualizer.statisticVisualizer[0] placementPriority 0
par TimeSyncUEUE.visualizer.statisticVisualizer[0] zIndex 10
par TimeSyncUEUE.visualizer.statisticVisualizer[0] propertyName "\"\""
par TimeSyncUEUE.visualizer.statisticVisualizer[0] propertyIndex "\"\""
par TimeSyncUEUE.visualizer.infoVisualizer[0] typename "\"inet.visualizer.canvas.common.InfoCanvasVisualizer\""
par TimeSyncUEUE.visualizer.infoVisualizer[0] visualizationTargetModule "\"^.^\""
par TimeSyncUEUE.visualizer.infoVisualizer[0] visualizationSubjectModule "\"^.^\""
par TimeSyncUEUE.visualizer.infoVisualizer[0] tags "\"\""
par TimeSyncUEUE.visualizer.infoVisualizer[0] networkNodeVisualizerModule "\"TimeSyncUEUE.visualizer.networkNodeVisualizer[0]\""
par TimeSyncUEUE.visualizer.infoVisualizer[0] displayInfos true
par TimeSyncUEUE.visualizer.infoVisualizer[0] modules "\"*.TsnSwitchDataNetwork.clock\""
attr mutable ""
par TimeSyncUEUE.visualizer.infoVisualizer[0] format "\"%t\""
attr mutable ""
par TimeSyncUEUE.visualizer.infoVisualizer[0] font "\"<default>\""
par TimeSyncUEUE.visualizer.infoVisualizer[0] textColor "\"black\""
par TimeSyncUEUE.visualizer.infoVisualizer[0] backgroundColor "\"white\""
par TimeSyncUEUE.visualizer.infoVisualizer[0] opacity 1
par TimeSyncUEUE.visualizer.infoVisualizer[0] placementHint "\"top\""
par TimeSyncUEUE.visualizer.infoVisualizer[0] placementPriority 0
par TimeSyncUEUE.visualizer.infoVisualizer[0] zIndex 10
par TimeSyncUEUE.visualizer.infoVisualizer[1] typename "\"inet.visualizer.canvas.common.InfoCanvasVisualizer\""
par TimeSyncUEUE.visualizer.infoVisualizer[1] visualizationTargetModule "\"^.^\""
par TimeSyncUEUE.visualizer.infoVisualizer[1] visualizationSubjectModule "\"^.^\""
par TimeSyncUEUE.visualizer.infoVisualizer[1] tags "\"\""
par TimeSyncUEUE.visualizer.infoVisualizer[1] networkNodeVisualizerModule "\"TimeSyncUEUE.visualizer.networkNodeVisualizer[0]\""
par TimeSyncUEUE.visualizer.infoVisualizer[1] displayInfos true
par TimeSyncUEUE.visualizer.infoVisualizer[1] modules "\"*.TsnSwitchDomain1.clock\""
attr mutable ""
par TimeSyncUEUE.visualizer.infoVisualizer[1] format "\"%t\""
attr mutable ""
par TimeSyncUEUE.visualizer.infoVisualizer[1] font "\"<default>\""
par TimeSyncUEUE.visualizer.infoVisualizer[1] textColor "\"black\""
par TimeSyncUEUE.visualizer.infoVisualizer[1] backgroundColor "\"white\""
par TimeSyncUEUE.visualizer.infoVisualizer[1] opacity 1
par TimeSyncUEUE.visualizer.infoVisualizer[1] placementHint "\"topLeft\""
par TimeSyncUEUE.visualizer.infoVisualizer[1] placementPriority 0
par TimeSyncUEUE.visualizer.infoVisualizer[1] zIndex 10
par TimeSyncUEUE.visualizer.infoVisualizer[2] typename "\"inet.visualizer.canvas.common.InfoCanvasVisualizer\""
par TimeSyncUEUE.visualizer.infoVisualizer[2] visualizationTargetModule "\"^.^\""
par TimeSyncUEUE.visualizer.infoVisualizer[2] visualizationSubjectModule "\"^.^\""
par TimeSyncUEUE.visualizer.infoVisualizer[2] tags "\"\""
par TimeSyncUEUE.visualizer.infoVisualizer[2] networkNodeVisualizerModule "\"TimeSyncUEUE.visualizer.networkNodeVisualizer[0]\""
par TimeSyncUEUE.visualizer.infoVisualizer[2] displayInfos true
par TimeSyncUEUE.visualizer.infoVisualizer[2] modules "\"*.TsnSwitchDomain2*.clock\""
attr mutable ""
par TimeSyncUEUE.visualizer.infoVisualizer[2] format "\"%t\""
attr mutable ""
par TimeSyncUEUE.visualizer.infoVisualizer[2] font "\"<default>\""
par TimeSyncUEUE.visualizer.infoVisualizer[2] textColor "\"black\""
par TimeSyncUEUE.visualizer.infoVisualizer[2] backgroundColor "\"white\""
par TimeSyncUEUE.visualizer.infoVisualizer[2] opacity 1
par TimeSyncUEUE.visualizer.infoVisualizer[2] placementHint "\"topRight\""
par TimeSyncUEUE.visualizer.infoVisualizer[2] placementPriority 0
par TimeSyncUEUE.visualizer.infoVisualizer[2] zIndex 10
par TimeSyncUEUE.visualizer.energyStorageVisualizer[0] typename "\"inet.visualizer.canvas.power.EnergyStorageCanvasVisualizer\""
par TimeSyncUEUE.visualizer.energyStorageVisualizer[0] visualizationTargetModule "\"^.^\""
par TimeSyncUEUE.visualizer.energyStorageVisualizer[0] visualizationSubjectModule "\"^.^\""
par TimeSyncUEUE.visualizer.energyStorageVisualizer[0] tags "\"\""
par TimeSyncUEUE.visualizer.energyStorageVisualizer[0] networkNodeVisualizerModule "\"TimeSyncUEUE.visualizer.networkNodeVisualizer[0]\""
par TimeSyncUEUE.visualizer.energyStorageVisualizer[0] displayEnergyStorages false
par TimeSyncUEUE.visualizer.energyStorageVisualizer[0] energyStorageFilter "\"**\""
par TimeSyncUEUE.visualizer.energyStorageVisualizer[0] color "\"green\""
par TimeSyncUEUE.visualizer.energyStorageVisualizer[0] width 8
par TimeSyncUEUE.visualizer.energyStorageVisualizer[0] height 24
par TimeSyncUEUE.visualizer.energyStorageVisualizer[0] spacing 2
par TimeSyncUEUE.visualizer.energyStorageVisualizer[0] placementHint "\"right\""
par TimeSyncUEUE.visualizer.energyStorageVisualizer[0] placementPriority 0
par TimeSyncUEUE.visualizer.energyStorageVisualizer[0] zIndex 10
par TimeSyncUEUE.visualizer.mediumVisualizer[0] typename "\"inet.visualizer.canvas.physicallayer.MediumCanvasVisualizer\""
par TimeSyncUEUE.visualizer.mediumVisualizer[0] visualizationTargetModule "\"^.^\""
par TimeSyncUEUE.visualizer.mediumVisualizer[0] visualizationSubjectModule "\"^.^\""
par TimeSyncUEUE.visualizer.mediumVisualizer[0] tags "\"\""
par TimeSyncUEUE.visualizer.mediumVisualizer[0] mediumModule "\"radioMedium\""
par TimeSyncUEUE.visualizer.mediumVisualizer[0] networkNodeVisualizerModule "\"TimeSyncUEUE.visualizer.networkNodeVisualizer[0]\""
par TimeSyncUEUE.visualizer.mediumVisualizer[0] nodeFilter "\"*\""
attr mutable ""
par TimeSyncUEUE.visualizer.mediumVisualizer[0] interfaceFilter "\"*\""
attr mutable ""
par TimeSyncUEUE.visualizer.mediumVisualizer[0] packetFilter "(omnetpp::cValueHolder)holder: \"*\""
attr mutable ""
par TimeSyncUEUE.visualizer.mediumVisualizer[0] displaySignals false
par TimeSyncUEUE.visualizer.mediumVisualizer[0] signalColor "\"dark\""
attr enum light,dark
par TimeSyncUEUE.visualizer.mediumVisualizer[0] signalPropagationAnimationSpeed "nan "
attr mutable ""
par TimeSyncUEUE.visualizer.mediumVisualizer[0] signalPropagationAnimationTime 1s
attr unit s
par TimeSyncUEUE.visualizer.mediumVisualizer[0] signalPropagationAdditionalTime 0s
attr unit s
par TimeSyncUEUE.visualizer.mediumVisualizer[0] signalTransmissionAnimationSpeed "nan "
attr mutable ""
par TimeSyncUEUE.visualizer.mediumVisualizer[0] signalTransmissionAnimationTime 1s
attr unit s
par TimeSyncUEUE.visualizer.mediumVisualizer[0] signalAnimationSpeedChangeTimeMode "\"realTime\""
attr enum realTime,animationTime,simulationTime
par TimeSyncUEUE.visualizer.mediumVisualizer[0] signalAnimationSpeedChangeTime 1s
attr unit s
par TimeSyncUEUE.visualizer.mediumVisualizer[0] displaySignalDepartures false
par TimeSyncUEUE.visualizer.mediumVisualizer[0] signalDepartureImage "\"misc/signal_departure.png\""
par TimeSyncUEUE.visualizer.mediumVisualizer[0] signalDeparturePlacementHint "\"topCenter\""
par TimeSyncUEUE.visualizer.mediumVisualizer[0] signalDeparturePlacementPriority 1
par TimeSyncUEUE.visualizer.mediumVisualizer[0] displaySignalArrivals false
par TimeSyncUEUE.visualizer.mediumVisualizer[0] signalArrivalImage "\"misc/signal_arrival.png\""
par TimeSyncUEUE.visualizer.mediumVisualizer[0] signalArrivalPlacementHint "\"topCenter\""
par TimeSyncUEUE.visualizer.mediumVisualizer[0] signalArrivalPlacementPriority -1
par TimeSyncUEUE.visualizer.mediumVisualizer[0] displayCommunicationRanges false
par TimeSyncUEUE.visualizer.mediumVisualizer[0] communicationRangeLineColor "\"blue\""
par TimeSyncUEUE.visualizer.mediumVisualizer[0] communicationRangeLineStyle "\"solid\""
par TimeSyncUEUE.visualizer.mediumVisualizer[0] communicationRangeLineWidth 1
par TimeSyncUEUE.visualizer.mediumVisualizer[0] displayInterferenceRanges false
par TimeSyncUEUE.visualizer.mediumVisualizer[0] interferenceRangeLineColor "\"gray\""
par TimeSyncUEUE.visualizer.mediumVisualizer[0] interferenceRangeLineStyle "\"solid\""
par TimeSyncUEUE.visualizer.mediumVisualizer[0] interferenceRangeLineWidth 1
par TimeSyncUEUE.visualizer.mediumVisualizer[0] autoPowerAxis true
par TimeSyncUEUE.visualizer.mediumVisualizer[0] signalMinPower "inf dBmW"
attr unit dBmW
par TimeSyncUEUE.visualizer.mediumVisualizer[0] signalMaxPower 0dBmW
attr unit dBmW
par TimeSyncUEUE.visualizer.mediumVisualizer[0] signalMinPowerDensity "inf dBmWpMHz"
attr unit dBmWpMHz
par TimeSyncUEUE.visualizer.mediumVisualizer[0] signalMaxPowerDensity "-inf dBmWpMHz"
attr unit dBmWpMHz
par TimeSyncUEUE.visualizer.mediumVisualizer[0] autoTimeAxis true
par TimeSyncUEUE.visualizer.mediumVisualizer[0] signalMinTime 0s
attr unit s
par TimeSyncUEUE.visualizer.mediumVisualizer[0] signalMaxTime 0s
attr unit s
par TimeSyncUEUE.visualizer.mediumVisualizer[0] autoFrequencyAxis true
par TimeSyncUEUE.visualizer.mediumVisualizer[0] signalMinFrequency "inf Hz"
attr unit Hz
par TimeSyncUEUE.visualizer.mediumVisualizer[0] signalMaxFrequency "-inf Hz"
attr unit Hz
par TimeSyncUEUE.visualizer.mediumVisualizer[0] displayMainPowerDensityMap false
par TimeSyncUEUE.visualizer.mediumVisualizer[0] mainPowerDensityMapPixmapDensity 1
par TimeSyncUEUE.visualizer.mediumVisualizer[0] mainPowerDensityMapMinX 0
par TimeSyncUEUE.visualizer.mediumVisualizer[0] mainPowerDensityMapMaxX "nan "
par TimeSyncUEUE.visualizer.mediumVisualizer[0] mainPowerDensityMapMinY 0
par TimeSyncUEUE.visualizer.mediumVisualizer[0] mainPowerDensityMapMaxY "nan "
par TimeSyncUEUE.visualizer.mediumVisualizer[0] mainPowerDensityMapZ 0
par TimeSyncUEUE.visualizer.mediumVisualizer[0] mainPowerDensityMapFigureXTickCount 3
par TimeSyncUEUE.visualizer.mediumVisualizer[0] mainPowerDensityMapFigureYTickCount 3
par TimeSyncUEUE.visualizer.mediumVisualizer[0] displayPowerDensityMaps false
par TimeSyncUEUE.visualizer.mediumVisualizer[0] powerDensityMapMode "\"auto\""
attr enum total,signal,auto
par TimeSyncUEUE.visualizer.mediumVisualizer[0] powerDensityMapPixelMode "\"mean\""
attr enum sample,partition,mean
par TimeSyncUEUE.visualizer.mediumVisualizer[0] powerDensityMapApproximationSize 10
par TimeSyncUEUE.visualizer.mediumVisualizer[0] powerDensityMapCenterFrequency "nan Hz"
attr mutable ""
attr unit Hz
par TimeSyncUEUE.visualizer.mediumVisualizer[0] powerDensityMapBandwidth 0Hz
attr mutable ""
attr unit Hz
par TimeSyncUEUE.visualizer.mediumVisualizer[0] powerDensityMapFigureWidth 200
par TimeSyncUEUE.visualizer.mediumVisualizer[0] powerDensityMapFigureHeight 120
par TimeSyncUEUE.visualizer.mediumVisualizer[0] powerDensityMapPixmapWidth 200
par TimeSyncUEUE.visualizer.mediumVisualizer[0] powerDensityMapPixmapHeight 120
par TimeSyncUEUE.visualizer.mediumVisualizer[0] powerDensityMapZ 0
par TimeSyncUEUE.visualizer.mediumVisualizer[0] powerDensityMapFigureXTickCount 3
par TimeSyncUEUE.visualizer.mediumVisualizer[0] powerDensityMapFigureYTickCount 3
par TimeSyncUEUE.visualizer.mediumVisualizer[0] displaySpectrums false
par TimeSyncUEUE.visualizer.mediumVisualizer[0] spectrumMode "\"auto\""
attr enum total,signal,auto
par TimeSyncUEUE.visualizer.mediumVisualizer[0] spectrumFigureWidth 200
par TimeSyncUEUE.visualizer.mediumVisualizer[0] spectrumFigureHeight 120
par TimeSyncUEUE.visualizer.mediumVisualizer[0] spectrumFigureXTickCount 3
par TimeSyncUEUE.visualizer.mediumVisualizer[0] spectrumFigureYTickCount 5
par TimeSyncUEUE.visualizer.mediumVisualizer[0] spectrumFigureInterpolationSize 5
par TimeSyncUEUE.visualizer.mediumVisualizer[0] spectrumPlacementHint "\"bottomCenter\""
par TimeSyncUEUE.visualizer.mediumVisualizer[0] spectrumPlacementPriority -1
par TimeSyncUEUE.visualizer.mediumVisualizer[0] displaySpectrograms false
par TimeSyncUEUE.visualizer.mediumVisualizer[0] spectrogramMode "\"auto\""
attr enum total,signal,auto
par TimeSyncUEUE.visualizer.mediumVisualizer[0] spectrogramPixelMode "\"mean\""
attr enum sample,partition,mean
par TimeSyncUEUE.visualizer.mediumVisualizer[0] spectrogramFigureWidth 200
par TimeSyncUEUE.visualizer.mediumVisualizer[0] spectrogramFigureHeight 120
par TimeSyncUEUE.visualizer.mediumVisualizer[0] spectrogramPixmapWidth 200
par TimeSyncUEUE.visualizer.mediumVisualizer[0] spectrogramPixmapHeight 120
par TimeSyncUEUE.visualizer.mediumVisualizer[0] spectrogramFigureXTickCount 3
par TimeSyncUEUE.visualizer.mediumVisualizer[0] spectrogramFigureYTickCount 5
par TimeSyncUEUE.visualizer.mediumVisualizer[0] spectrogramPlacementHint "\"bottomCenter\""
par TimeSyncUEUE.visualizer.mediumVisualizer[0] spectrogramPlacementPriority -1
par TimeSyncUEUE.visualizer.mediumVisualizer[0] zIndex 0
par TimeSyncUEUE.visualizer.mediumVisualizer[0] signalShape "\"ring\""
attr enum ring,sphere
par TimeSyncUEUE.visualizer.mediumVisualizer[0] signalOpacity 0.5
par TimeSyncUEUE.visualizer.mediumVisualizer[0] signalRingCount 20
par TimeSyncUEUE.visualizer.mediumVisualizer[0] signalRingSize 50m
attr unit m
par TimeSyncUEUE.visualizer.mediumVisualizer[0] signalFadingDistance 50m
attr unit m
par TimeSyncUEUE.visualizer.mediumVisualizer[0] signalFadingFactor 1.2
par TimeSyncUEUE.visualizer.mediumVisualizer[0] signalWaveCount 20
par TimeSyncUEUE.visualizer.mediumVisualizer[0] signalWaveLength 50m
attr unit m
par TimeSyncUEUE.visualizer.mediumVisualizer[0] signalWaveWidth 10m
attr unit m
par TimeSyncUEUE.visualizer.mediumVisualizer[0] signalWaveFadingAnimationSpeedFactor 1
par TimeSyncUEUE.visualizer.mediumVisualizer[0] displayCommunicationHeat false
par TimeSyncUEUE.visualizer.obstacleLossVisualizer[0] typename "\"inet.visualizer.canvas.physicallayer.TracingObstacleLossCanvasVisualizer\""
par TimeSyncUEUE.visualizer.obstacleLossVisualizer[0] visualizationTargetModule "\"^.^\""
par TimeSyncUEUE.visualizer.obstacleLossVisualizer[0] visualizationSubjectModule "\"^.^\""
par TimeSyncUEUE.visualizer.obstacleLossVisualizer[0] tags "\"\""
par TimeSyncUEUE.visualizer.obstacleLossVisualizer[0] displayIntersections false
par TimeSyncUEUE.visualizer.obstacleLossVisualizer[0] intersectionLineColor "\"red\""
par TimeSyncUEUE.visualizer.obstacleLossVisualizer[0] intersectionLineStyle "\"solid\""
par TimeSyncUEUE.visualizer.obstacleLossVisualizer[0] intersectionLineWidth 1
par TimeSyncUEUE.visualizer.obstacleLossVisualizer[0] displayFaceNormalVectors false
par TimeSyncUEUE.visualizer.obstacleLossVisualizer[0] faceNormalLineColor "\"grey\""
par TimeSyncUEUE.visualizer.obstacleLossVisualizer[0] faceNormalLineStyle "\"solid\""
par TimeSyncUEUE.visualizer.obstacleLossVisualizer[0] faceNormalLineWidth 1
par TimeSyncUEUE.visualizer.obstacleLossVisualizer[0] fadeOutMode "\"realTime\""
attr enum realTime,animationTime,simulationTime
par TimeSyncUEUE.visualizer.obstacleLossVisualizer[0] fadeOutTime 1s
attr unit s
par TimeSyncUEUE.visualizer.obstacleLossVisualizer[0] fadeOutAnimationSpeed 0
par TimeSyncUEUE.visualizer.obstacleLossVisualizer[0] zIndex 0
par TimeSyncUEUE.visualizer.packetDropVisualizer[0] typename "\"inet.visualizer.canvas.common.PacketDropCanvasVisualizer\""
par TimeSyncUEUE.visualizer.packetDropVisualizer[0] visualizationTargetModule "\"^.^\""
par TimeSyncUEUE.visualizer.packetDropVisualizer[0] visualizationSubjectModule "\"^.^\""
par TimeSyncUEUE.visualizer.packetDropVisualizer[0] tags "\"\""
par TimeSyncUEUE.visualizer.packetDropVisualizer[0] displayPacketDrops false
par TimeSyncUEUE.visualizer.packetDropVisualizer[0] nodeFilter "\"*\""
attr mutable ""
par TimeSyncUEUE.visualizer.packetDropVisualizer[0] interfaceFilter "\"*\""
attr mutable ""
par TimeSyncUEUE.visualizer.packetDropVisualizer[0] packetFilter "(omnetpp::cValueHolder)holder: \"*\""
attr mutable ""
par TimeSyncUEUE.visualizer.packetDropVisualizer[0] detailsFilter "\"*\""
attr mutable ""
par TimeSyncUEUE.visualizer.packetDropVisualizer[0] icon "\"msg/packet_s\""
par TimeSyncUEUE.visualizer.packetDropVisualizer[0] iconTintAmount 1
par TimeSyncUEUE.visualizer.packetDropVisualizer[0] iconTintColor "\"dark\""
par TimeSyncUEUE.visualizer.packetDropVisualizer[0] labelFormat "\"%n\""
attr mutable ""
par TimeSyncUEUE.visualizer.packetDropVisualizer[0] labelFont "\"<default>\""
par TimeSyncUEUE.visualizer.packetDropVisualizer[0] labelColor "\"black\""
par TimeSyncUEUE.visualizer.packetDropVisualizer[0] fadeOutMode "\"realTime\""
attr enum realTime,animationTime,simulationTime
par TimeSyncUEUE.visualizer.packetDropVisualizer[0] fadeOutTime 1s
attr unit s
par TimeSyncUEUE.visualizer.packetDropVisualizer[0] fadeOutAnimationSpeed 0
par TimeSyncUEUE.visualizer.packetDropVisualizer[0] zIndex 10
par TimeSyncUEUE.visualizer.packetDropVisualizer[0] dx 32
par TimeSyncUEUE.visualizer.packetDropVisualizer[0] dy 64
par TimeSyncUEUE.visualizer.queueVisualizer[0] typename "\"inet.visualizer.canvas.common.QueueCanvasVisualizer\""
par TimeSyncUEUE.visualizer.queueVisualizer[0] visualizationTargetModule "\"^.^\""
par TimeSyncUEUE.visualizer.queueVisualizer[0] visualizationSubjectModule "\"^.^\""
par TimeSyncUEUE.visualizer.queueVisualizer[0] tags "\"\""
par TimeSyncUEUE.visualizer.queueVisualizer[0] networkNodeVisualizerModule "\"TimeSyncUEUE.visualizer.networkNodeVisualizer[0]\""
par TimeSyncUEUE.visualizer.queueVisualizer[0] displayQueues false
par TimeSyncUEUE.visualizer.queueVisualizer[0] queueFilter "\"**\""
par TimeSyncUEUE.visualizer.queueVisualizer[0] color "\"blue\""
par TimeSyncUEUE.visualizer.queueVisualizer[0] width 8
par TimeSyncUEUE.visualizer.queueVisualizer[0] height 24
par TimeSyncUEUE.visualizer.queueVisualizer[0] spacing 2
par TimeSyncUEUE.visualizer.queueVisualizer[0] placementHint "\"right\""
par TimeSyncUEUE.visualizer.queueVisualizer[0] placementPriority 0
par TimeSyncUEUE.visualizer.queueVisualizer[0] zIndex 10
par TimeSyncUEUE.visualizer.gateScheduleVisualizer[0] typename "\"inet.visualizer.canvas.common.GateScheduleCanvasVisualizer\""
par TimeSyncUEUE.visualizer.gateScheduleVisualizer[0] visualizationTargetModule "\"^.^\""
par TimeSyncUEUE.visualizer.gateScheduleVisualizer[0] visualizationSubjectModule "\"^.^\""
par TimeSyncUEUE.visualizer.gateScheduleVisualizer[0] tags "\"\""
par TimeSyncUEUE.visualizer.gateScheduleVisualizer[0] networkNodeVisualizerModule "\"TimeSyncUEUE.visualizer.networkNodeVisualizer[0]\""
par TimeSyncUEUE.visualizer.gateScheduleVisualizer[0] displayGateSchedules false
par TimeSyncUEUE.visualizer.gateScheduleVisualizer[0] labelFormat "\"%i %D\""
par TimeSyncUEUE.visualizer.gateScheduleVisualizer[0] gateFilter "\"**\""
par TimeSyncUEUE.visualizer.gateScheduleVisualizer[0] width 100
par TimeSyncUEUE.visualizer.gateScheduleVisualizer[0] height 8
par TimeSyncUEUE.visualizer.gateScheduleVisualizer[0] spacing 2
par TimeSyncUEUE.visualizer.gateScheduleVisualizer[0] placementHint "\"right\""
par TimeSyncUEUE.visualizer.gateScheduleVisualizer[0] placementPriority 0
par TimeSyncUEUE.visualizer.gateScheduleVisualizer[0] displayDuration 0s
attr mutable ""
attr unit s
par TimeSyncUEUE.visualizer.gateScheduleVisualizer[0] currentTimePosition 50
par TimeSyncUEUE.visualizer.gateScheduleVisualizer[0] zIndex 10
par TimeSyncUEUE.visualizer.radioVisualizer[0] typename "\"inet.visualizer.canvas.physicallayer.RadioCanvasVisualizer\""
par TimeSyncUEUE.visualizer.radioVisualizer[0] visualizationTargetModule "\"^.^\""
par TimeSyncUEUE.visualizer.radioVisualizer[0] visualizationSubjectModule "\"^.^\""
par TimeSyncUEUE.visualizer.radioVisualizer[0] tags "\"\""
par TimeSyncUEUE.visualizer.radioVisualizer[0] networkNodeVisualizerModule "\"TimeSyncUEUE.visualizer.networkNodeVisualizer[0]\""
par TimeSyncUEUE.visualizer.radioVisualizer[0] displayRadios false
par TimeSyncUEUE.visualizer.radioVisualizer[0] displayRadioMode true
par TimeSyncUEUE.visualizer.radioVisualizer[0] displayReceptionState true
par TimeSyncUEUE.visualizer.radioVisualizer[0] displayTransmissionState true
par TimeSyncUEUE.visualizer.radioVisualizer[0] displayAntennaLobes false
par TimeSyncUEUE.visualizer.radioVisualizer[0] radioFilter "\"**\""
attr mutable ""
par TimeSyncUEUE.visualizer.radioVisualizer[0] radioModeImages "\"block/process_vs block/timer_vs block/wrx_vs block/wtx_vs block/wrxtx_vs block/cogwheel_vs\""
par TimeSyncUEUE.visualizer.radioVisualizer[0] receptionStateImages "\"- - misc/receiving misc/receiving\""
par TimeSyncUEUE.visualizer.radioVisualizer[0] transmissionStateImages "\"- - misc/transmitting\""
par TimeSyncUEUE.visualizer.radioVisualizer[0] width 16
par TimeSyncUEUE.visualizer.radioVisualizer[0] height 16
par TimeSyncUEUE.visualizer.radioVisualizer[0] placementHint "\"bottomRight\""
par TimeSyncUEUE.visualizer.radioVisualizer[0] placementPriority 0
par TimeSyncUEUE.visualizer.radioVisualizer[0] antennaLobeNormalize false
par TimeSyncUEUE.visualizer.radioVisualizer[0] antennaLobeRelativeLabels false
par TimeSyncUEUE.visualizer.radioVisualizer[0] antennaLobePlaneGlobal true
par TimeSyncUEUE.visualizer.radioVisualizer[0] antennaLobePlane "\"view\""
attr enum view,xy,xz,yz
par TimeSyncUEUE.visualizer.radioVisualizer[0] antennaLobeMode "\"logarithmic\""
attr enum logarithmic,linear
par TimeSyncUEUE.visualizer.radioVisualizer[0] antennaLobeLogarithmicBase 10
par TimeSyncUEUE.visualizer.radioVisualizer[0] antennaLobeLogarithmicScale 100
par TimeSyncUEUE.visualizer.radioVisualizer[0] antennaLobeRadius 100
par TimeSyncUEUE.visualizer.radioVisualizer[0] antennaLobeStep 10deg
attr unit deg
par TimeSyncUEUE.visualizer.radioVisualizer[0] antennaLobeOpacity 0.25
par TimeSyncUEUE.visualizer.radioVisualizer[0] antennaLobeLineSmooth true
par TimeSyncUEUE.visualizer.radioVisualizer[0] antennaLobeLineColor "\"black\""
par TimeSyncUEUE.visualizer.radioVisualizer[0] antennaLobeLineStyle "\"solid\""
par TimeSyncUEUE.visualizer.radioVisualizer[0] antennaLobeLineWidth 1
par TimeSyncUEUE.visualizer.radioVisualizer[0] antennaLobeFillColor "\"white\""
par TimeSyncUEUE.visualizer.radioVisualizer[0] zIndex 10
par TimeSyncUEUE.visualizer.physicalLinkVisualizer[0] typename "\"inet.visualizer.canvas.physicallayer.PhysicalLinkCanvasVisualizer\""
par TimeSyncUEUE.visualizer.physicalLinkVisualizer[0] visualizationTargetModule "\"^.^\""
par TimeSyncUEUE.visualizer.physicalLinkVisualizer[0] visualizationSubjectModule "\"^.^\""
par TimeSyncUEUE.visualizer.physicalLinkVisualizer[0] tags "\"\""
par TimeSyncUEUE.visualizer.physicalLinkVisualizer[0] displayLinks false
par TimeSyncUEUE.visualizer.physicalLinkVisualizer[0] activityLevel "\"service\""
attr enum service,peer,protocol
par TimeSyncUEUE.visualizer.physicalLinkVisualizer[0] nodeFilter "\"*\""
attr mutable ""
par TimeSyncUEUE.visualizer.physicalLinkVisualizer[0] interfaceFilter "\"*\""
attr mutable ""
par TimeSyncUEUE.visualizer.physicalLinkVisualizer[0] packetFilter "(omnetpp::cValueHolder)holder: \"*\""
attr mutable ""
par TimeSyncUEUE.visualizer.physicalLinkVisualizer[0] lineColor "\"olive\""
par TimeSyncUEUE.visualizer.physicalLinkVisualizer[0] lineStyle "\"dotted\""
par TimeSyncUEUE.visualizer.physicalLinkVisualizer[0] lineWidth 3
par TimeSyncUEUE.visualizer.physicalLinkVisualizer[0] lineShift 16
par TimeSyncUEUE.visualizer.physicalLinkVisualizer[0] lineShiftMode "\"normal\""
par TimeSyncUEUE.visualizer.physicalLinkVisualizer[0] lineContactSpacing 3
par TimeSyncUEUE.visualizer.physicalLinkVisualizer[0] lineContactMode "\"rectangular\""
attr enum circular,rectangular
par TimeSyncUEUE.visualizer.physicalLinkVisualizer[0] labelFormat "\"%n\""
par TimeSyncUEUE.visualizer.physicalLinkVisualizer[0] labelFont "\"<default>, 8px\""
par TimeSyncUEUE.visualizer.physicalLinkVisualizer[0] labelColor "\"olive\""
par TimeSyncUEUE.visualizer.physicalLinkVisualizer[0] fadeOutMode "\"realTime\""
attr enum realTime,animationTime,simulationTime
par TimeSyncUEUE.visualizer.physicalLinkVisualizer[0] fadeOutTime 1s
attr unit s
par TimeSyncUEUE.visualizer.physicalLinkVisualizer[0] fadeOutAnimationSpeed 0
par TimeSyncUEUE.visualizer.physicalLinkVisualizer[0] holdAnimationTime 0s
attr unit s
par TimeSyncUEUE.visualizer.physicalLinkVisualizer[0] zIndex 1
par TimeSyncUEUE.visualizer.interfaceTableVisualizer[0] typename "\"inet.visualizer.canvas.linklayer.InterfaceTableCanvasVisualizer\""
par TimeSyncUEUE.visualizer.interfaceTableVisualizer[0] visualizationTargetModule "\"^.^\""
par TimeSyncUEUE.visualizer.interfaceTableVisualizer[0] visualizationSubjectModule "\"^.^\""
par TimeSyncUEUE.visualizer.interfaceTableVisualizer[0] tags "\"\""
par TimeSyncUEUE.visualizer.interfaceTableVisualizer[0] networkNodeVisualizerModule "\"TimeSyncUEUE.visualizer.networkNodeVisualizer[0]\""
par TimeSyncUEUE.visualizer.interfaceTableVisualizer[0] displayInterfaceTables false
par TimeSyncUEUE.visualizer.interfaceTableVisualizer[0] displayWiredInterfacesAtConnections true
par TimeSyncUEUE.visualizer.interfaceTableVisualizer[0] displayBackground false
par TimeSyncUEUE.visualizer.interfaceTableVisualizer[0] nodeFilter "\"*\""
attr mutable ""
par TimeSyncUEUE.visualizer.interfaceTableVisualizer[0] interfaceFilter "\"not(lo*)\""
attr mutable ""
par TimeSyncUEUE.visualizer.interfaceTableVisualizer[0] format "\"%N %\\\\%a%/%l\""
attr mutable ""
par TimeSyncUEUE.visualizer.interfaceTableVisualizer[0] placementHint "\"top\""
par TimeSyncUEUE.visualizer.interfaceTableVisualizer[0] placementPriority 0
par TimeSyncUEUE.visualizer.interfaceTableVisualizer[0] font "\"<default>\""
par TimeSyncUEUE.visualizer.interfaceTableVisualizer[0] textColor "\"#005030\""
par TimeSyncUEUE.visualizer.interfaceTableVisualizer[0] backgroundColor "\"white\""
par TimeSyncUEUE.visualizer.interfaceTableVisualizer[0] opacity 1
par TimeSyncUEUE.visualizer.interfaceTableVisualizer[0] zIndex 10
par TimeSyncUEUE.visualizer.dataLinkVisualizer[0] typename "\"inet.visualizer.canvas.linklayer.DataLinkCanvasVisualizer\""
par TimeSyncUEUE.visualizer.dataLinkVisualizer[0] visualizationTargetModule "\"^.^\""
par TimeSyncUEUE.visualizer.dataLinkVisualizer[0] visualizationSubjectModule "\"^.^\""
par TimeSyncUEUE.visualizer.dataLinkVisualizer[0] tags "\"\""
par TimeSyncUEUE.visualizer.dataLinkVisualizer[0] displayLinks true
par TimeSyncUEUE.visualizer.dataLinkVisualizer[0] activityLevel "\"protocol\""
attr enum service,peer,protocol
par TimeSyncUEUE.visualizer.dataLinkVisualizer[0] nodeFilter "\"*\""
attr mutable ""
par TimeSyncUEUE.visualizer.dataLinkVisualizer[0] interfaceFilter "\"*\""
attr mutable ""
par TimeSyncUEUE.visualizer.dataLinkVisualizer[0] packetFilter "(omnetpp::cValueHolder)holder: \"GptpSync\""
attr mutable ""
par TimeSyncUEUE.visualizer.dataLinkVisualizer[0] lineColor "\"blue2\""
par TimeSyncUEUE.visualizer.dataLinkVisualizer[0] lineStyle "\"solid\""
par TimeSyncUEUE.visualizer.dataLinkVisualizer[0] lineWidth 3
par TimeSyncUEUE.visualizer.dataLinkVisualizer[0] lineShift 16
par TimeSyncUEUE.visualizer.dataLinkVisualizer[0] lineShiftMode "\"normal\""
par TimeSyncUEUE.visualizer.dataLinkVisualizer[0] lineContactSpacing 3
par TimeSyncUEUE.visualizer.dataLinkVisualizer[0] lineContactMode "\"rectangular\""
attr enum circular,rectangular
par TimeSyncUEUE.visualizer.dataLinkVisualizer[0] labelFormat "\"%n\""
par TimeSyncUEUE.visualizer.dataLinkVisualizer[0] labelFont "\"<default>, 8px\""
par TimeSyncUEUE.visualizer.dataLinkVisualizer[0] labelColor "\"darkcyan\""
par TimeSyncUEUE.visualizer.dataLinkVisualizer[0] fadeOutMode "\"realTime\""
attr enum realTime,animationTime,simulationTime
par TimeSyncUEUE.visualizer.dataLinkVisualizer[0] fadeOutTime 1s
attr unit s
par TimeSyncUEUE.visualizer.dataLinkVisualizer[0] fadeOutAnimationSpeed 0
par TimeSyncUEUE.visualizer.dataLinkVisualizer[0] holdAnimationTime 0s
attr unit s
par TimeSyncUEUE.visualizer.dataLinkVisualizer[0] zIndex 2
par TimeSyncUEUE.visualizer.linkBreakVisualizer[0] typename "\"inet.visualizer.canvas.linklayer.LinkBreakCanvasVisualizer\""
par TimeSyncUEUE.visualizer.linkBreakVisualizer[0] visualizationTargetModule "\"^.^\""
par TimeSyncUEUE.visualizer.linkBreakVisualizer[0] visualizationSubjectModule "\"^.^\""
par TimeSyncUEUE.visualizer.linkBreakVisualizer[0] tags "\"\""
par TimeSyncUEUE.visualizer.linkBreakVisualizer[0] displayLinkBreaks false
par TimeSyncUEUE.visualizer.linkBreakVisualizer[0] nodeFilter "\"*\""
attr mutable ""
par TimeSyncUEUE.visualizer.linkBreakVisualizer[0] interfaceFilter "\"*\""
attr mutable ""
par TimeSyncUEUE.visualizer.linkBreakVisualizer[0] packetFilter "(omnetpp::cValueHolder)holder: \"*\""
attr mutable ""
par TimeSyncUEUE.visualizer.linkBreakVisualizer[0] icon "\"status/stop\""
par TimeSyncUEUE.visualizer.linkBreakVisualizer[0] iconTintAmount 0
par TimeSyncUEUE.visualizer.linkBreakVisualizer[0] iconTintColor "\"\""
par TimeSyncUEUE.visualizer.linkBreakVisualizer[0] fadeOutMode "\"realTime\""
attr enum realTime,animationTime,simulationTime
par TimeSyncUEUE.visualizer.linkBreakVisualizer[0] fadeOutTime 1s
attr unit s
par TimeSyncUEUE.visualizer.linkBreakVisualizer[0] fadeOutAnimationSpeed 0
par TimeSyncUEUE.visualizer.linkBreakVisualizer[0] zIndex 2
par TimeSyncUEUE.visualizer.ieee80211Visualizer[0] typename "\"inet.visualizer.canvas.linklayer.Ieee80211CanvasVisualizer\""
par TimeSyncUEUE.visualizer.ieee80211Visualizer[0] visualizationTargetModule "\"^.^\""
par TimeSyncUEUE.visualizer.ieee80211Visualizer[0] visualizationSubjectModule "\"^.^\""
par TimeSyncUEUE.visualizer.ieee80211Visualizer[0] tags "\"\""
par TimeSyncUEUE.visualizer.ieee80211Visualizer[0] networkNodeVisualizerModule "\"TimeSyncUEUE.visualizer.networkNodeVisualizer[0]\""
par TimeSyncUEUE.visualizer.ieee80211Visualizer[0] displayAssociations false
par TimeSyncUEUE.visualizer.ieee80211Visualizer[0] nodeFilter "\"*\""
attr mutable ""
par TimeSyncUEUE.visualizer.ieee80211Visualizer[0] interfaceFilter "\"*\""
attr mutable ""
par TimeSyncUEUE.visualizer.ieee80211Visualizer[0] minPower -85dBm
attr unit dBm
par TimeSyncUEUE.visualizer.ieee80211Visualizer[0] maxPower -50dBm
attr unit dBm
par TimeSyncUEUE.visualizer.ieee80211Visualizer[0] icons "\"misc/signal_power_0 misc/signal_power_1 misc/signal_power_2 misc/signal_power_3\""
par TimeSyncUEUE.visualizer.ieee80211Visualizer[0] iconColor "\"dark\""
attr enum light,dark
par TimeSyncUEUE.visualizer.ieee80211Visualizer[0] labelFont "\"<default>\""
par TimeSyncUEUE.visualizer.ieee80211Visualizer[0] labelColor "\"black\""
par TimeSyncUEUE.visualizer.ieee80211Visualizer[0] placementHint "\"top\""
par TimeSyncUEUE.visualizer.ieee80211Visualizer[0] placementPriority 0
par TimeSyncUEUE.visualizer.ieee80211Visualizer[0] zIndex 2
par TimeSyncUEUE.visualizer.networkRouteVisualizer[0] typename "\"inet.visualizer.canvas.networklayer.NetworkRouteCanvasVisualizer\""
par TimeSyncUEUE.visualizer.networkRouteVisualizer[0] visualizationTargetModule "\"^.^\""
par TimeSyncUEUE.visualizer.networkRouteVisualizer[0] visualizationSubjectModule "\"^.^\""
par TimeSyncUEUE.visualizer.networkRouteVisualizer[0] tags "\"\""
par TimeSyncUEUE.visualizer.networkRouteVisualizer[0] displayRoutes false
par TimeSyncUEUE.visualizer.networkRouteVisualizer[0] startPathSignal "\"packetReceivedFromUpper\""
par TimeSyncUEUE.visualizer.networkRouteVisualizer[0] extendPathSignal "\"packetReceivedFromLower\""
par TimeSyncUEUE.visualizer.networkRouteVisualizer[0] endPathSignal "\"packetSentToUpper\""
par TimeSyncUEUE.visualizer.networkRouteVisualizer[0] nodeFilter "\"*\""
attr mutable ""
par TimeSyncUEUE.visualizer.networkRouteVisualizer[0] packetFilter "(omnetpp::cValueHolder)holder: \"*\""
attr mutable ""
par TimeSyncUEUE.visualizer.networkRouteVisualizer[0] lineColor "\"dark\""
attr enum light,dark
par TimeSyncUEUE.visualizer.networkRouteVisualizer[0] lineStyle "\"solid\""
par TimeSyncUEUE.visualizer.networkRouteVisualizer[0] lineWidth 3
par TimeSyncUEUE.visualizer.networkRouteVisualizer[0] lineSmooth false
par TimeSyncUEUE.visualizer.networkRouteVisualizer[0] lineShift 16
par TimeSyncUEUE.visualizer.networkRouteVisualizer[0] lineShiftMode "\"normal\""
par TimeSyncUEUE.visualizer.networkRouteVisualizer[0] lineContactSpacing 3
par TimeSyncUEUE.visualizer.networkRouteVisualizer[0] lineContactMode "\"rectangular\""
attr enum circular,rectangular
par TimeSyncUEUE.visualizer.networkRouteVisualizer[0] labelFormat "\"%n\""
par TimeSyncUEUE.visualizer.networkRouteVisualizer[0] labelFont "\"<default>, 8px\""
par TimeSyncUEUE.visualizer.networkRouteVisualizer[0] labelColor "\"\""
par TimeSyncUEUE.visualizer.networkRouteVisualizer[0] fadeOutMode "\"realTime\""
attr enum realTime,animationTime,simulationTime
par TimeSyncUEUE.visualizer.networkRouteVisualizer[0] fadeOutTime 1s
attr unit s
par TimeSyncUEUE.visualizer.networkRouteVisualizer[0] fadeOutAnimationSpeed 0
par TimeSyncUEUE.visualizer.networkRouteVisualizer[0] zIndex 3
par TimeSyncUEUE.visualizer.routingTableVisualizer[0] typename "\"inet.visualizer.canvas.networklayer.RoutingTableCanvasVisualizer\""
par TimeSyncUEUE.visualizer.routingTableVisualizer[0] visualizationTargetModule "\"^.^\""
par TimeSyncUEUE.visualizer.routingTableVisualizer[0] visualizationSubjectModule "\"^.^\""
par TimeSyncUEUE.visualizer.routingTableVisualizer[0] tags "\"\""
par TimeSyncUEUE.visualizer.routingTableVisualizer[0] displayRoutingTables false
par TimeSyncUEUE.visualizer.routingTableVisualizer[0] displayRoutesIndividually true
par TimeSyncUEUE.visualizer.routingTableVisualizer[0] displayLabels true
par TimeSyncUEUE.visualizer.routingTableVisualizer[0] destinationFilter "\"*\""
attr mutable ""
par TimeSyncUEUE.visualizer.routingTableVisualizer[0] nodeFilter "\"*\""
attr mutable ""
par TimeSyncUEUE.visualizer.routingTableVisualizer[0] lineColor "\"black\""
par TimeSyncUEUE.visualizer.routingTableVisualizer[0] lineStyle "\"solid\""
par TimeSyncUEUE.visualizer.routingTableVisualizer[0] lineWidth 2
par TimeSyncUEUE.visualizer.routingTableVisualizer[0] lineShift 16
par TimeSyncUEUE.visualizer.routingTableVisualizer[0] lineShiftMode "\"normal\""
par TimeSyncUEUE.visualizer.routingTableVisualizer[0] lineContactSpacing 3
par TimeSyncUEUE.visualizer.routingTableVisualizer[0] lineContactMode "\"rectangular\""
attr enum circular,rectangular
par TimeSyncUEUE.visualizer.routingTableVisualizer[0] labelFormat "\"%d/%m -> %g (%n)\""
attr mutable ""
par TimeSyncUEUE.visualizer.routingTableVisualizer[0] labelFont "\"<default>, 8px\""
par TimeSyncUEUE.visualizer.routingTableVisualizer[0] labelColor "\"black\""
par TimeSyncUEUE.visualizer.routingTableVisualizer[0] zIndex 0
par TimeSyncUEUE.visualizer.transportRouteVisualizer[0] typename "\"inet.visualizer.canvas.transportlayer.TransportRouteCanvasVisualizer\""
par TimeSyncUEUE.visualizer.transportRouteVisualizer[0] visualizationTargetModule "\"^.^\""
par TimeSyncUEUE.visualizer.transportRouteVisualizer[0] visualizationSubjectModule "\"^.^\""
par TimeSyncUEUE.visualizer.transportRouteVisualizer[0] tags "\"\""
par TimeSyncUEUE.visualizer.transportRouteVisualizer[0] displayRoutes false
par TimeSyncUEUE.visualizer.transportRouteVisualizer[0] startPathSignal "\"packetReceivedFromUpper\""
par TimeSyncUEUE.visualizer.transportRouteVisualizer[0] extendPathSignal "\"packetReceivedFromLower\""
par TimeSyncUEUE.visualizer.transportRouteVisualizer[0] endPathSignal "\"packetSentToUpper\""
par TimeSyncUEUE.visualizer.transportRouteVisualizer[0] nodeFilter "\"*\""
attr mutable ""
par TimeSyncUEUE.visualizer.transportRouteVisualizer[0] packetFilter "(omnetpp::cValueHolder)holder: \"*\""
attr mutable ""
par TimeSyncUEUE.visualizer.transportRouteVisualizer[0] lineColor "\"dark\""
attr enum light,dark
par TimeSyncUEUE.visualizer.transportRouteVisualizer[0] lineStyle "\"solid\""
par TimeSyncUEUE.visualizer.transportRouteVisualizer[0] lineWidth 3
par TimeSyncUEUE.visualizer.transportRouteVisualizer[0] lineSmooth false
par TimeSyncUEUE.visualizer.transportRouteVisualizer[0] lineShift 16
par TimeSyncUEUE.visualizer.transportRouteVisualizer[0] lineShiftMode "\"normal\""
par TimeSyncUEUE.visualizer.transportRouteVisualizer[0] lineContactSpacing 3
par TimeSyncUEUE.visualizer.transportRouteVisualizer[0] lineContactMode "\"rectangular\""
attr enum circular,rectangular
par TimeSyncUEUE.visualizer.transportRouteVisualizer[0] labelFormat "\"%n\""
par TimeSyncUEUE.visualizer.transportRouteVisualizer[0] labelFont "\"<default>, 8px\""
par TimeSyncUEUE.visualizer.transportRouteVisualizer[0] labelColor "\"\""
par TimeSyncUEUE.visualizer.transportRouteVisualizer[0] fadeOutMode "\"realTime\""
attr enum realTime,animationTime,simulationTime
par TimeSyncUEUE.visualizer.transportRouteVisualizer[0] fadeOutTime 1s
attr unit s
par TimeSyncUEUE.visualizer.transportRouteVisualizer[0] fadeOutAnimationSpeed 0
par TimeSyncUEUE.visualizer.transportRouteVisualizer[0] zIndex 4
par TimeSyncUEUE.visualizer.transportConnectionVisualizer[0] typename "\"inet.visualizer.canvas.transportlayer.TransportConnectionCanvasVisualizer\""
par TimeSyncUEUE.visualizer.transportConnectionVisualizer[0] visualizationTargetModule "\"^.^\""
par TimeSyncUEUE.visualizer.transportConnectionVisualizer[0] visualizationSubjectModule "\"^.^\""
par TimeSyncUEUE.visualizer.transportConnectionVisualizer[0] tags "\"\""
par TimeSyncUEUE.visualizer.transportConnectionVisualizer[0] networkNodeVisualizerModule "\"TimeSyncUEUE.visualizer.networkNodeVisualizer[0]\""
par TimeSyncUEUE.visualizer.transportConnectionVisualizer[0] displayTransportConnections false
par TimeSyncUEUE.visualizer.transportConnectionVisualizer[0] sourceNodeFilter "\"*\""
attr mutable ""
par TimeSyncUEUE.visualizer.transportConnectionVisualizer[0] sourcePortFilter "\"*\""
attr mutable ""
par TimeSyncUEUE.visualizer.transportConnectionVisualizer[0] destinationNodeFilter "\"*\""
attr mutable ""
par TimeSyncUEUE.visualizer.transportConnectionVisualizer[0] destinationPortFilter "\"*\""
attr mutable ""
par TimeSyncUEUE.visualizer.transportConnectionVisualizer[0] icon "\"misc/marker_s\""
par TimeSyncUEUE.visualizer.transportConnectionVisualizer[0] iconColor "\"dark\""
attr enum light,dark
par TimeSyncUEUE.visualizer.transportConnectionVisualizer[0] labelFont "\"<default>\""
par TimeSyncUEUE.visualizer.transportConnectionVisualizer[0] labelColor "\"black\""
par TimeSyncUEUE.visualizer.transportConnectionVisualizer[0] placementHint "\"top\""
par TimeSyncUEUE.visualizer.transportConnectionVisualizer[0] placementPriority 0
par TimeSyncUEUE.visualizer.transportConnectionVisualizer[0] zIndex 4
par TimeSyncUEUE.visualizer.failureProtectionConfigurationVisualizer[0] typename "\"inet.visualizer.canvas.configurator.FailureProtectionConfigurationCanvasVisualizer\""
par TimeSyncUEUE.visualizer.failureProtectionConfigurationVisualizer[0] visualizationTargetModule "\"^.^\""
par TimeSyncUEUE.visualizer.failureProtectionConfigurationVisualizer[0] visualizationSubjectModule "\"^.^\""
par TimeSyncUEUE.visualizer.failureProtectionConfigurationVisualizer[0] tags "\"\""
par TimeSyncUEUE.visualizer.failureProtectionConfigurationVisualizer[0] displayTrees false
par TimeSyncUEUE.visualizer.failureProtectionConfigurationVisualizer[0] lineColor "\"dark\""
attr enum light,dark
par TimeSyncUEUE.visualizer.failureProtectionConfigurationVisualizer[0] lineStyle "\"solid\""
par TimeSyncUEUE.visualizer.failureProtectionConfigurationVisualizer[0] lineWidth 3
par TimeSyncUEUE.visualizer.failureProtectionConfigurationVisualizer[0] lineSmooth false
par TimeSyncUEUE.visualizer.failureProtectionConfigurationVisualizer[0] lineShift 16
par TimeSyncUEUE.visualizer.failureProtectionConfigurationVisualizer[0] lineShiftMode "\"normal\""
par TimeSyncUEUE.visualizer.failureProtectionConfigurationVisualizer[0] lineContactSpacing 3
par TimeSyncUEUE.visualizer.failureProtectionConfigurationVisualizer[0] lineContactMode "\"rectangular\""
attr enum circular,rectangular
par TimeSyncUEUE.visualizer.failureProtectionConfigurationVisualizer[0] failureProtectionConfiguratorModule "\"failureProtectionConfigurator\""
par TimeSyncUEUE.visualizer.failureProtectionConfigurationVisualizer[0] streamFilter "\"*\""
par TimeSyncUEUE.visualizer.failureProtectionConfigurationVisualizer[0] zIndex 3
par TimeSyncUEUE.visualizer.streamRedundancyConfigurationVisualizer[0] typename "\"inet.visualizer.canvas.configurator.StreamRedundancyConfigurationCanvasVisualizer\""
par TimeSyncUEUE.visualizer.streamRedundancyConfigurationVisualizer[0] visualizationTargetModule "\"^.^\""
par TimeSyncUEUE.visualizer.streamRedundancyConfigurationVisualizer[0] visualizationSubjectModule "\"^.^\""
par TimeSyncUEUE.visualizer.streamRedundancyConfigurationVisualizer[0] tags "\"\""
par TimeSyncUEUE.visualizer.streamRedundancyConfigurationVisualizer[0] displayTrees false
par TimeSyncUEUE.visualizer.streamRedundancyConfigurationVisualizer[0] lineColor "\"dark\""
attr enum light,dark
par TimeSyncUEUE.visualizer.streamRedundancyConfigurationVisualizer[0] lineStyle "\"solid\""
par TimeSyncUEUE.visualizer.streamRedundancyConfigurationVisualizer[0] lineWidth 3
par TimeSyncUEUE.visualizer.streamRedundancyConfigurationVisualizer[0] lineSmooth false
par TimeSyncUEUE.visualizer.streamRedundancyConfigurationVisualizer[0] lineShift 16
par TimeSyncUEUE.visualizer.streamRedundancyConfigurationVisualizer[0] lineShiftMode "\"normal\""
par TimeSyncUEUE.visualizer.streamRedundancyConfigurationVisualizer[0] lineContactSpacing 3
par TimeSyncUEUE.visualizer.streamRedundancyConfigurationVisualizer[0] lineContactMode "\"rectangular\""
attr enum circular,rectangular
par TimeSyncUEUE.visualizer.streamRedundancyConfigurationVisualizer[0] streamRedundancyConfiguratorModule "\"streamRedundancyConfigurator\""
par TimeSyncUEUE.visualizer.streamRedundancyConfigurationVisualizer[0] streamFilter "\"*\""
par TimeSyncUEUE.visualizer.streamRedundancyConfigurationVisualizer[0] zIndex 3
par TimeSyncUEUE.visualizer typename "\"inet.visualizer.canvas.integrated.IntegratedMultiCanvasVisualizer\""
par TimeSyncUEUE.visualizer numSceneVisualizers 1
par TimeSyncUEUE.visualizer numPhysicalEnvironmentVisualizers 1
par TimeSyncUEUE.visualizer numNetworkNodeVisualizers 1
par TimeSyncUEUE.visualizer numNetworkConnectionVisualizers 1
par TimeSyncUEUE.visualizer numMobilityVisualizers 1
par TimeSyncUEUE.visualizer numStatisticVisualizers 1
par TimeSyncUEUE.visualizer numInfoVisualizers 3
par TimeSyncUEUE.visualizer numEnergyStorageVisualizers 1
par TimeSyncUEUE.visualizer numMediumVisualizers 1
par TimeSyncUEUE.visualizer numObstacleLossVisualizers 1
par TimeSyncUEUE.visualizer numPacketDropVisualizers 1
par TimeSyncUEUE.visualizer numQueueVisualizers 1
par TimeSyncUEUE.visualizer numGateScheduleVisualizers 1
par TimeSyncUEUE.visualizer numRadioVisualizers 1
par TimeSyncUEUE.visualizer numPhysicalLinkVisualizers 1
par TimeSyncUEUE.visualizer numInterfaceTableVisualizers 1
par TimeSyncUEUE.visualizer numDataLinkVisualizers 1
par TimeSyncUEUE.visualizer numLinkBreakVisualizers 1
par TimeSyncUEUE.visualizer numIeee80211Visualizers 1
par TimeSyncUEUE.visualizer numNetworkRouteVisualizers 1
par TimeSyncUEUE.visualizer numRoutingTableVisualizers 1
par TimeSyncUEUE.visualizer numTransportRouteVisualizers 1
par TimeSyncUEUE.visualizer numTransportConnectionVisualizers 1
par TimeSyncUEUE.visualizer numFailureProtectionConfigurationVisualizers 1
par TimeSyncUEUE.visualizer numStreamRedundancyConfigurationVisualizers 1
par TimeSyncUEUE.configurator typename "\"inet.networklayer.configurator.ipv4.Ipv4NetworkConfigurator\""
par TimeSyncUEUE.configurator minLinkWeight 0.001
par TimeSyncUEUE.configurator configureIsolatedNetworksSeparatly false
par TimeSyncUEUE.configurator config "<config>...</config> at content:1"
par TimeSyncUEUE.configurator assignAddresses true
par TimeSyncUEUE.configurator assignUniqueAddresses true
par TimeSyncUEUE.configurator assignDisjunctSubnetAddresses true
par TimeSyncUEUE.configurator addStaticRoutes true
par TimeSyncUEUE.configurator addDefaultRoutes true
par TimeSyncUEUE.configurator addSubnetRoutes true
par TimeSyncUEUE.configurator addDirectRoutes true
par TimeSyncUEUE.configurator optimizeRoutes true
par TimeSyncUEUE.configurator dumpTopology false
par TimeSyncUEUE.configurator dumpLinks false
par TimeSyncUEUE.configurator dumpAddresses false
par TimeSyncUEUE.configurator dumpRoutes false
par TimeSyncUEUE.configurator dumpConfig "\"\""
par TimeSyncUEUE.macForwardingTableConfigurator typename "\"inet.linklayer.configurator.MacForwardingTableConfigurator\""
par TimeSyncUEUE.histogramContainer typename "\"src.distribution.histogram.HistogramContainer\""
par TimeSyncUEUE.histogramContainer histograms "{s10DL: \"../../../deterministic6g_data/PD-Wireless-5G-1/s10-DL_wall.xml\", s19DL: \"../../../deterministic6g_data/PD-Wireless-5G-1/s19-DL_wall.xml\", s1UL: \"../../../deterministic6g_data/PD-Wireless-5G-1/s1-UL_wall.xml\", s20UL: \"../../../deterministic6g_data/PD-Wireless-5G-1/s20-UL_wall.xml\", s22UL: \"../../../deterministic6g_data/PD-Wireless-5G-1/s22-UL_wall.xml\", s23DL: \"../../../deterministic6g_data/PD-Wireless-5G-1/s23-DL_wall.xml\", s24UL: \"../../../deterministic6g_data/PD-Wireless-5G-1/s24-UL_wall.xml\", s25DL: \"../../../deterministic6g_data/PD-Wireless-5G-1/s25-DL_wall.xml\", s26UL: \"../../../deterministic6g_data/PD-Wireless-5G-1/s26-UL_wall.xml\", s3UL: \"../../../deterministic6g_data/PD-Wireless-5G-1/s3-UL_wall.xml\", s4UL: \"../../../deterministic6g_data/PD-Wireless-5G-1/s4-UL_wall.xml\", s6UL: \"../../../deterministic6g_data/PD-Wireless-5G-1/s6-UL_wall.xml\", s7UL: \"../../../deterministic6g_data/PD-Wireless-5G-1/s7-UL_wall.xml\", s8UL: \"../../../deterministic6g_data/PD-Wireless-5G-1/s8-UL_wall.xml\", s9UL: \"../../../deterministic6g_data/PD-Wireless-5G-1/s9-UL_wall.xml\"}"
par TimeSyncUEUE.TsnSwitchDomain1.ethg$i[0].channel typename "\"ned.IdealChannel\""
par TimeSyncUEUE.TsnSwitchDomain1.eth[0].phys$o.channel typename "\"ned.IdealChannel\""
par TimeSyncUEUE.TsnSwitchDomain1.clock.oscillator typename "\"inet.clock.oscillator.ConstantDriftOscillator\""
par TimeSyncUEUE.TsnSwitchDomain1.clock.oscillator displayStringTextFormat "\"%c (%n + %d)\""
par TimeSyncUEUE.TsnSwitchDomain1.clock.oscillator nominalTickLength 0s
attr unit s
par TimeSyncUEUE.TsnSwitchDomain1.clock.oscillator tickOffset 0s
attr unit s
par TimeSyncUEUE.TsnSwitchDomain1.clock.oscillator driftRate 0ppm
attr unit ppm
par TimeSyncUEUE.TsnSwitchDomain1.clock typename "\"inet.clock.model.SettableClock\""
par TimeSyncUEUE.TsnSwitchDomain1.clock displayStringTextFormat "\"diff: %d\""
par TimeSyncUEUE.TsnSwitchDomain1.clock referenceClock "\"TsnSwitchDataNetwork.clock\""
par TimeSyncUEUE.TsnSwitchDomain1.clock emitClockTimeInterval 0s
attr unit s
par TimeSyncUEUE.TsnSwitchDomain1.clock initialClockTime 0s
attr unit s
par TimeSyncUEUE.TsnSwitchDomain1.clock roundingMode "\"up\""
attr enum down,up,closer,none
par TimeSyncUEUE.TsnSwitchDomain1.clock defaultOverdueClockEventHandlingMode "\"execute\""
attr enum execute,skip,error
par TimeSyncUEUE.TsnSwitchDomain1.interfaceTable typename "\"inet.networklayer.common.InterfaceTable\""
par TimeSyncUEUE.TsnSwitchDomain1.interfaceTable displayAddresses false
par TimeSyncUEUE.TsnSwitchDomain1.cb typename "\"inet.common.MessageDispatcher\""
par TimeSyncUEUE.TsnSwitchDomain1.cb displayStringTextFormat "\"processed %p pk (%l)\""
par TimeSyncUEUE.TsnSwitchDomain1.cb forwardServiceRegistration true
par TimeSyncUEUE.TsnSwitchDomain1.cb forwardProtocolRegistration true
par TimeSyncUEUE.TsnSwitchDomain1.bl typename "\"inet.common.MessageDispatcher\""
par TimeSyncUEUE.TsnSwitchDomain1.bl displayStringTextFormat "\"processed %p pk (%l)\""
par TimeSyncUEUE.TsnSwitchDomain1.bl forwardServiceRegistration true
par TimeSyncUEUE.TsnSwitchDomain1.bl forwardProtocolRegistration true
par TimeSyncUEUE.TsnSwitchDomain1.ethernet.fcsInserter.out.channel typename "\"ned.IdealChannel\""
par TimeSyncUEUE.TsnSwitchDomain1.ethernet.lowerLayerIn.channel typename "\"ned.IdealChannel\""
par TimeSyncUEUE.TsnSwitchDomain1.ethernet.upperLayerIn.channel typename "\"ned.IdealChannel\""
par TimeSyncUEUE.TsnSwitchDomain1.ethernet.macHeaderChecker.out.channel typename "\"ned.IdealChannel\""
par TimeSyncUEUE.TsnSwitchDomain1.ethernet.macHeaderInserter typename "\"inet.linklayer.ethernet.modular.EthernetMacHeaderInserter\""
par TimeSyncUEUE.TsnSwitchDomain1.ethernet.macHeaderInserter displayStringTextFormat "\"processed %p pk (%l)\""
par TimeSyncUEUE.TsnSwitchDomain1.ethernet.macHeaderInserter interfaceTableModule "\"TimeSyncUEUE.TsnSwitchDomain1.interfaceTable\""
scalar TimeSyncUEUE.TsnSwitchDomain1.ethernet.macHeaderInserter outgoingPackets:count 100
attr recordingmode count
attr source "merge(packetPushedOut, packetPulledOut)"
attr title "outgoing packets, count"
attr unit pk
scalar TimeSyncUEUE.TsnSwitchDomain1.ethernet.macHeaderInserter outgoingPacketLengths:sum 54400
attr interpolationmode none
attr recordingmode sum
attr source "packetLength(merge(packetPushedOut, packetPulledOut))"
attr title "outgoing packet lengths, sum"
attr unit b
statistic TimeSyncUEUE.TsnSwitchDomain1.ethernet.macHeaderInserter outgoingPacketLengths:histogram
field count 100
field mean 544
field stddev 0
field min 544
field max 544
field sum 54400
field sqrsum 29593600
attr interpolationmode none
attr recordingmode histogram
attr source "packetLength(merge(packetPushedOut, packetPulledOut))"
attr title "outgoing packet lengths"
attr unit b
bin	-inf	0
bin	543	0
bin	544	100
bin	545	0
scalar TimeSyncUEUE.TsnSwitchDomain1.ethernet.macHeaderInserter flowOutgoingPacketLengths:sum 0
attr interpolationmode none
attr recordingmode sum
attr source "packetLength(demuxFlow(merge(packetPushedOut, packetPulledOut)))"
attr title "flow specific outgoing packet lengths, sum"
attr unit b
statistic TimeSyncUEUE.TsnSwitchDomain1.ethernet.macHeaderInserter flowOutgoingPacketLengths:histogram
field count 0
field mean -nan
field stddev nan
field min nan
field max nan
field sum 0
field sqrsum 0
attr interpolationmode none
attr recordingmode histogram
attr source "packetLength(demuxFlow(merge(packetPushedOut, packetPulledOut)))"
attr title "flow specific outgoing packet lengths"
attr unit b
bin	-inf	0
bin	0	0
bin	1	0
scalar TimeSyncUEUE.TsnSwitchDomain1.ethernet.macHeaderInserter incomingPackets:count 100
attr recordingmode count
attr source "merge(packetPushedIn, packetPulledIn)"
attr title "incoming packets, count"
attr unit pk
scalar TimeSyncUEUE.TsnSwitchDomain1.ethernet.macHeaderInserter incomingPacketLengths:sum 43200
attr interpolationmode none
attr recordingmode sum
attr source "packetLength(merge(packetPushedIn, packetPulledIn))"
attr title "incoming packet lengths, sum"
attr unit b
statistic TimeSyncUEUE.TsnSwitchDomain1.ethernet.macHeaderInserter incomingPacketLengths:histogram
field count 100
field mean 432
field stddev 0
field min 432
field max 432
field sum 43200
field sqrsum 18662400
attr interpolationmode none
attr recordingmode histogram
attr source "packetLength(merge(packetPushedIn, packetPulledIn))"
attr title "incoming packet lengths"
attr unit b
bin	-inf	0
bin	431	0
bin	432	100
bin	433	0
scalar TimeSyncUEUE.TsnSwitchDomain1.ethernet.macHeaderInserter flowIncomingPacketLengths:sum 0
attr interpolationmode none
attr recordingmode sum
attr source "packetLength(demuxFlow(merge(packetPushedIn, packetPulledIn)))"
attr title "flow specific incoming packet lengths, sum"
attr unit b
statistic TimeSyncUEUE.TsnSwitchDomain1.ethernet.macHeaderInserter flowIncomingPacketLengths:histogram
field count 0
field mean -nan
field stddev nan
field min nan
field max nan
field sum 0
field sqrsum 0
attr interpolationmode none
attr recordingmode histogram
attr source "packetLength(demuxFlow(merge(packetPushedIn, packetPulledIn)))"
attr title "flow specific incoming packet lengths"
attr unit b
bin	-inf	0
bin	0	0
bin	1	0
par TimeSyncUEUE.TsnSwitchDomain1.ethernet.paddingInserter typename "\"inet.protocolelement.common.PaddingInserter\""
par TimeSyncUEUE.TsnSwitchDomain1.ethernet.paddingInserter displayStringTextFormat "\"processed %p pk (%l)\""
par TimeSyncUEUE.TsnSwitchDomain1.ethernet.paddingInserter minLength 480b
attr unit b
par TimeSyncUEUE.TsnSwitchDomain1.ethernet.paddingInserter roundingLength 8b
attr unit b
par TimeSyncUEUE.TsnSwitchDomain1.ethernet.paddingInserter insertionPosition "\"back\""
attr enum front,back
scalar TimeSyncUEUE.TsnSwitchDomain1.ethernet.paddingInserter outgoingPackets:count 100
attr recordingmode count
attr source "merge(packetPushedOut, packetPulledOut)"
attr title "outgoing packets, count"
attr unit pk
scalar TimeSyncUEUE.TsnSwitchDomain1.ethernet.paddingInserter outgoingPacketLengths:sum 54400
attr interpolationmode none
attr recordingmode sum
attr source "packetLength(merge(packetPushedOut, packetPulledOut))"
attr title "outgoing packet lengths, sum"
attr unit b
statistic TimeSyncUEUE.TsnSwitchDomain1.ethernet.paddingInserter outgoingPacketLengths:histogram
field count 100
field mean 544
field stddev 0
field min 544
field max 544
field sum 54400
field sqrsum 29593600
attr interpolationmode none
attr recordingmode histogram
attr source "packetLength(merge(packetPushedOut, packetPulledOut))"
attr title "outgoing packet lengths"
attr unit b
bin	-inf	0
bin	543	0
bin	544	100
bin	545	0
scalar TimeSyncUEUE.TsnSwitchDomain1.ethernet.paddingInserter flowOutgoingPacketLengths:sum 0
attr interpolationmode none
attr recordingmode sum
attr source "packetLength(demuxFlow(merge(packetPushedOut, packetPulledOut)))"
attr title "flow specific outgoing packet lengths, sum"
attr unit b
statistic TimeSyncUEUE.TsnSwitchDomain1.ethernet.paddingInserter flowOutgoingPacketLengths:histogram
field count 0
field mean -nan
field stddev nan
field min nan
field max nan
field sum 0
field sqrsum 0
attr interpolationmode none
attr recordingmode histogram
attr source "packetLength(demuxFlow(merge(packetPushedOut, packetPulledOut)))"
attr title "flow specific outgoing packet lengths"
attr unit b
bin	-inf	0
bin	0	0
bin	1	0
scalar TimeSyncUEUE.TsnSwitchDomain1.ethernet.paddingInserter incomingPackets:count 100
attr recordingmode count
attr source "merge(packetPushedIn, packetPulledIn)"
attr title "incoming packets, count"
attr unit pk
scalar TimeSyncUEUE.TsnSwitchDomain1.ethernet.paddingInserter incomingPacketLengths:sum 54400
attr interpolationmode none
attr recordingmode sum
attr source "packetLength(merge(packetPushedIn, packetPulledIn))"
attr title "incoming packet lengths, sum"
attr unit b
statistic TimeSyncUEUE.TsnSwitchDomain1.ethernet.paddingInserter incomingPacketLengths:histogram
field count 100
field mean 544
field stddev 0
field min 544
field max 544
field sum 54400
field sqrsum 29593600
attr interpolationmode none
attr recordingmode histogram
attr source "packetLength(merge(packetPushedIn, packetPulledIn))"
attr title "incoming packet lengths"
attr unit b
bin	-inf	0
bin	543	0
bin	544	100
bin	545	0
scalar TimeSyncUEUE.TsnSwitchDomain1.ethernet.paddingInserter flowIncomingPacketLengths:sum 0
attr interpolationmode none
attr recordingmode sum
attr source "packetLength(demuxFlow(merge(packetPushedIn, packetPulledIn)))"
attr title "flow specific incoming packet lengths, sum"
attr unit b
statistic TimeSyncUEUE.TsnSwitchDomain1.ethernet.paddingInserter flowIncomingPacketLengths:histogram
field count 0
field mean -nan
field stddev nan
field min nan
field max nan
field sum 0
field sqrsum 0
attr interpolationmode none
attr recordingmode histogram
attr source "packetLength(demuxFlow(merge(packetPushedIn, packetPulledIn)))"
attr title "flow specific incoming packet lengths"
attr unit b
bin	-inf	0
bin	0	0
bin	1	0
par TimeSyncUEUE.TsnSwitchDomain1.ethernet.fcsInserter typename "\"inet.linklayer.ethernet.modular.EthernetFcsInserter\""
par TimeSyncUEUE.TsnSwitchDomain1.ethernet.fcsInserter displayStringTextFormat "\"processed %p pk (%l)\""
par TimeSyncUEUE.TsnSwitchDomain1.ethernet.fcsInserter fcsMode "\"declared\""
attr enum disabled,declared,computed
scalar TimeSyncUEUE.TsnSwitchDomain1.ethernet.fcsInserter outgoingPackets:count 100
attr recordingmode count
attr source "merge(packetPushedOut, packetPulledOut)"
attr title "outgoing packets, count"
attr unit pk
scalar TimeSyncUEUE.TsnSwitchDomain1.ethernet.fcsInserter outgoingPacketLengths:sum 57600
attr interpolationmode none
attr recordingmode sum
attr source "packetLength(merge(packetPushedOut, packetPulledOut))"
attr title "outgoing packet lengths, sum"
attr unit b
statistic TimeSyncUEUE.TsnSwitchDomain1.ethernet.fcsInserter outgoingPacketLengths:histogram
field count 100
field mean 576
field stddev 0
field min 576
field max 576
field sum 57600
field sqrsum 33177600
attr interpolationmode none
attr recordingmode histogram
attr source "packetLength(merge(packetPushedOut, packetPulledOut))"
attr title "outgoing packet lengths"
attr unit b
bin	-inf	0
bin	575	0
bin	576	100
bin	577	0
scalar TimeSyncUEUE.TsnSwitchDomain1.ethernet.fcsInserter flowOutgoingPacketLengths:sum 0
attr interpolationmode none
attr recordingmode sum
attr source "packetLength(demuxFlow(merge(packetPushedOut, packetPulledOut)))"
attr title "flow specific outgoing packet lengths, sum"
attr unit b
statistic TimeSyncUEUE.TsnSwitchDomain1.ethernet.fcsInserter flowOutgoingPacketLengths:histogram
field count 0
field mean -nan
field stddev nan
field min nan
field max nan
field sum 0
field sqrsum 0
attr interpolationmode none
attr recordingmode histogram
attr source "packetLength(demuxFlow(merge(packetPushedOut, packetPulledOut)))"
attr title "flow specific outgoing packet lengths"
attr unit b
bin	-inf	0
bin	0	0
bin	1	0
scalar TimeSyncUEUE.TsnSwitchDomain1.ethernet.fcsInserter incomingPackets:count 100
attr recordingmode count
attr source "merge(packetPushedIn, packetPulledIn)"
attr title "incoming packets, count"
attr unit pk
scalar TimeSyncUEUE.TsnSwitchDomain1.ethernet.fcsInserter incomingPacketLengths:sum 54400
attr interpolationmode none
attr recordingmode sum
attr source "packetLength(merge(packetPushedIn, packetPulledIn))"
attr title "incoming packet lengths, sum"
attr unit b
statistic TimeSyncUEUE.TsnSwitchDomain1.ethernet.fcsInserter incomingPacketLengths:histogram
field count 100
field mean 544
field stddev 0
field min 544
field max 544
field sum 54400
field sqrsum 29593600
attr interpolationmode none
attr recordingmode histogram
attr source "packetLength(merge(packetPushedIn, packetPulledIn))"
attr title "incoming packet lengths"
attr unit b
bin	-inf	0
bin	543	0
bin	544	100
bin	545	0
scalar TimeSyncUEUE.TsnSwitchDomain1.ethernet.fcsInserter flowIncomingPacketLengths:sum 0
attr interpolationmode none
attr recordingmode sum
attr source "packetLength(demuxFlow(merge(packetPushedIn, packetPulledIn)))"
attr title "flow specific incoming packet lengths, sum"
attr unit b
statistic TimeSyncUEUE.TsnSwitchDomain1.ethernet.fcsInserter flowIncomingPacketLengths:histogram
field count 0
field mean -nan
field stddev nan
field min nan
field max nan
field sum 0
field sqrsum 0
attr interpolationmode none
attr recordingmode histogram
attr source "packetLength(demuxFlow(merge(packetPushedIn, packetPulledIn)))"
attr title "flow specific incoming packet lengths"
attr unit b
bin	-inf	0
bin	0	0
bin	1	0
par TimeSyncUEUE.TsnSwitchDomain1.ethernet.macHeaderChecker typename "\"inet.linklayer.ethernet.modular.EthernetMacHeaderChecker\""
par TimeSyncUEUE.TsnSwitchDomain1.ethernet.macHeaderChecker displayStringTextFormat "\"dropped %d/%p pk (%k/%l)\""
par TimeSyncUEUE.TsnSwitchDomain1.ethernet.macHeaderChecker backpressure false
par TimeSyncUEUE.TsnSwitchDomain1.ethernet.macHeaderChecker interfaceTableModule "\"TimeSyncUEUE.TsnSwitchDomain1.interfaceTable\""
par TimeSyncUEUE.TsnSwitchDomain1.ethernet.macHeaderChecker promiscuous false
scalar TimeSyncUEUE.TsnSwitchDomain1.ethernet.macHeaderChecker outgoingPackets:count 1798
attr recordingmode count
attr source "merge(packetPushedOut, packetPulledOut)"
attr title "outgoing packets, count"
attr unit pk
scalar TimeSyncUEUE.TsnSwitchDomain1.ethernet.macHeaderChecker outgoingPacketLengths:sum 866224
attr interpolationmode none
attr recordingmode sum
attr source "packetLength(merge(packetPushedOut, packetPulledOut))"
attr title "outgoing packet lengths, sum"
attr unit b
statistic TimeSyncUEUE.TsnSwitchDomain1.ethernet.macHeaderChecker outgoingPacketLengths:histogram
field count 1798
field mean 481.77085650723
field stddev 114.52311806063
field min 368
field max 608
field sum 866224
field sqrsum 440890112
attr interpolationmode none
attr recordingmode histogram
attr source "packetLength(merge(packetPushedOut, packetPulledOut))"
attr title "outgoing packet lengths"
attr unit b
bin	-inf	0
bin	305	0
bin	310	0
bin	315	0
bin	320	0
bin	325	0
bin	330	0
bin	335	0
bin	340	0
bin	345	0
bin	350	0
bin	355	0
bin	360	0
bin	365	799
bin	370	0
bin	375	0
bin	380	0
bin	385	0
bin	390	0
bin	395	0
bin	400	0
bin	405	0
bin	410	0
bin	415	0
bin	420	0
bin	425	0
bin	430	200
bin	435	0
bin	440	0
bin	445	0
bin	450	0
bin	455	0
bin	460	0
bin	465	0
bin	470	0
bin	475	0
bin	480	0
bin	485	0
bin	490	0
bin	495	0
bin	500	0
bin	505	0
bin	510	0
bin	515	0
bin	520	0
bin	525	0
bin	530	0
bin	535	0
bin	540	0
bin	545	0
bin	550	0
bin	555	0
bin	560	0
bin	565	0
bin	570	0
bin	575	0
bin	580	0
bin	585	0
bin	590	0
bin	595	0
bin	600	0
bin	605	799
bin	610	0
bin	615	0
bin	620	0
bin	625	0
bin	630	0
bin	635	0
bin	640	0
bin	645	0
bin	650	0
bin	655	0
bin	660	0
bin	665	0
bin	670	0
scalar TimeSyncUEUE.TsnSwitchDomain1.ethernet.macHeaderChecker flowOutgoingPacketLengths:sum 0
attr interpolationmode none
attr recordingmode sum
attr source "packetLength(demuxFlow(merge(packetPushedOut, packetPulledOut)))"
attr title "flow specific outgoing packet lengths, sum"
attr unit b
statistic TimeSyncUEUE.TsnSwitchDomain1.ethernet.macHeaderChecker flowOutgoingPacketLengths:histogram
field count 0
field mean -nan
field stddev nan
field min nan
field max nan
field sum 0
field sqrsum 0
attr interpolationmode none
attr recordingmode histogram
attr source "packetLength(demuxFlow(merge(packetPushedOut, packetPulledOut)))"
attr title "flow specific outgoing packet lengths"
attr unit b
bin	-inf	0
bin	0	0
bin	1	0
scalar TimeSyncUEUE.TsnSwitchDomain1.ethernet.macHeaderChecker incomingPackets:count 1798
attr recordingmode count
attr source "merge(packetPushedIn, packetPulledIn)"
attr title "incoming packets, count"
attr unit pk
scalar TimeSyncUEUE.TsnSwitchDomain1.ethernet.macHeaderChecker incomingPacketLengths:sum 1067600
attr interpolationmode none
attr recordingmode sum
attr source "packetLength(merge(packetPushedIn, packetPulledIn))"
attr title "incoming packet lengths, sum"
attr unit b
statistic TimeSyncUEUE.TsnSwitchDomain1.ethernet.macHeaderChecker incomingPacketLengths:histogram
field count 1798
field mean 593.77085650723
field stddev 114.52311806063
field min 480
field max 720
field sum 1067600
field sqrsum 657478400
attr interpolationmode none
attr recordingmode histogram
attr source "packetLength(merge(packetPushedIn, packetPulledIn))"
attr title "incoming packet lengths"
attr unit b
bin	-inf	0
bin	420	0
bin	425	0
bin	430	0
bin	435	0
bin	440	0
bin	445	0
bin	450	0
bin	455	0
bin	460	0
bin	465	0
bin	470	0
bin	475	0
bin	480	799
bin	485	0
bin	490	0
bin	495	0
bin	500	0
bin	505	0
bin	510	0
bin	515	0
bin	520	0
bin	525	0
bin	530	0
bin	535	0
bin	540	200
bin	545	0
bin	550	0
bin	555	0
bin	560	0
bin	565	0
bin	570	0
bin	575	0
bin	580	0
bin	585	0
bin	590	0
bin	595	0
bin	600	0
bin	605	0
bin	610	0
bin	615	0
bin	620	0
bin	625	0
bin	630	0
bin	635	0
bin	640	0
bin	645	0
bin	650	0
bin	655	0
bin	660	0
bin	665	0
bin	670	0
bin	675	0
bin	680	0
bin	685	0
bin	690	0
bin	695	0
bin	700	0
bin	705	0
bin	710	0
bin	715	0
bin	720	799
bin	725	0
bin	730	0
bin	735	0
bin	740	0
bin	745	0
bin	750	0
bin	755	0
bin	760	0
bin	765	0
bin	770	0
bin	775	0
bin	780	0
scalar TimeSyncUEUE.TsnSwitchDomain1.ethernet.macHeaderChecker flowIncomingPacketLengths:sum 0
attr interpolationmode none
attr recordingmode sum
attr source "packetLength(demuxFlow(merge(packetPushedIn, packetPulledIn)))"
attr title "flow specific incoming packet lengths, sum"
attr unit b
statistic TimeSyncUEUE.TsnSwitchDomain1.ethernet.macHeaderChecker flowIncomingPacketLengths:histogram
field count 0
field mean -nan
field stddev nan
field min nan
field max nan
field sum 0
field sqrsum 0
attr interpolationmode none
attr recordingmode histogram
attr source "packetLength(demuxFlow(merge(packetPushedIn, packetPulledIn)))"
attr title "flow specific incoming packet lengths"
attr unit b
bin	-inf	0
bin	0	0
bin	1	0
scalar TimeSyncUEUE.TsnSwitchDomain1.ethernet.macHeaderChecker droppedPackets:count 0
attr recordingmode count
attr source packetDropped
attr title "dropped packets, count"
attr unit pk
scalar TimeSyncUEUE.TsnSwitchDomain1.ethernet.macHeaderChecker droppedPacketLengths:sum 0
attr interpolationmode none
attr recordingmode sum
attr source packetLength(packetDropped)
attr title "dropped packet lengths, sum"
attr unit b
[...]
par TimeSyncUEUE.FGS.nwtt[0].tt[1].phyLayer.outboundEmitter packetFilter "(omnetpp::cValueHolder)holder: \"*\""
par TimeSyncUEUE.FGS.nwtt[0].tt[1].phyLayer.outboundEmitter direction "\"outbound\""
attr enum undefined,inbound,outbound
par TimeSyncUEUE.FGS.nwtt[0].tt[1].phyLayer.outboundEmitter signalName "\"packetSentToLower\""
scalar TimeSyncUEUE.FGS.nwtt[0].tt[1].phyLayer.outboundEmitter outgoingPackets:count 0
attr recordingmode count
attr source "merge(packetPushedOut, packetPulledOut)"
attr title "outgoing packets, count"
attr unit pk
scalar TimeSyncUEUE.FGS.nwtt[0].tt[1].phyLayer.outboundEmitter outgoingPacketLengths:sum 0
attr interpolationmode none
attr recordingmode sum
attr source "packetLength(merge(packetPushedOut, packetPulledOut))"
attr title "outgoing packet lengths, sum"
attr unit b
statistic TimeSyncUEUE.FGS.nwtt[0].tt[1].phyLayer.outboundEmitter outgoingPacketLengths:histogram
field count 0
field mean -nan
field stddev nan
field min nan
field max nan
field sum 0
field sqrsum 0
attr interpolationmode none
attr recordingmode histogram
attr source "packetLength(merge(packetPushedOut, packetPulledOut))"
attr title "outgoing packet lengths"
attr unit b
bin	-inf	0
bin	0	0
bin	1	0
scalar TimeSyncUEUE.FGS.nwtt[0].tt[1].phyLayer.outboundEmitter flowOutgoingPacketLengths:sum 0
attr interpolationmode none
attr recordingmode sum
attr source "packetLength(demuxFlow(merge(packetPushedOut, packetPulledOut)))"
attr title "flow specific outgoing packet lengths, sum"
attr unit b
statistic TimeSyncUEUE.FGS.nwtt[0].tt[1].phyLayer.outboundEmitter flowOutgoingPacketLengths:histogram
field count 0
field mean -nan
field stddev nan
field min nan
field max nan
field sum 0
field sqrsum 0
attr interpolationmode none
attr recordingmode histogram
attr source "packetLength(demuxFlow(merge(packetPushedOut, packetPulledOut)))"
attr title "flow specific outgoing packet lengths"
attr unit b
bin	-inf	0
bin	0	0
bin	1	0
scalar TimeSyncUEUE.FGS.nwtt[0].tt[1].phyLayer.outboundEmitter incomingPackets:count 0
attr recordingmode count
attr source "merge(packetPushedIn, packetPulledIn)"
attr title "incoming packets, count"
attr unit pk
scalar TimeSyncUEUE.FGS.nwtt[0].tt[1].phyLayer.outboundEmitter incomingPacketLengths:sum 0
attr interpolationmode none
attr recordingmode sum
attr source "packetLength(merge(packetPushedIn, packetPulledIn))"
attr title "incoming packet lengths, sum"
attr unit b
statistic TimeSyncUEUE.FGS.nwtt[0].tt[1].phyLayer.outboundEmitter incomingPacketLengths:histogram
field count 0
field mean -nan
field stddev nan
field min nan
field max nan
field sum 0
field sqrsum 0
attr interpolationmode none
attr recordingmode histogram
attr source "packetLength(merge(packetPushedIn, packetPulledIn))"
attr title "incoming packet lengths"
attr unit b
bin	-inf	0
bin	0	0
bin	1	0
scalar TimeSyncUEUE.FGS.nwtt[0].tt[1].phyLayer.outboundEmitter flowIncomingPacketLengths:sum 0
attr interpolationmode none
attr recordingmode sum
attr source "packetLength(demuxFlow(merge(packetPushedIn, packetPulledIn)))"
attr title "flow specific incoming packet lengths, sum"
attr unit b
statistic TimeSyncUEUE.FGS.nwtt[0].tt[1].phyLayer.outboundEmitter flowIncomingPacketLengths:histogram
field count 0
field mean -nan
field stddev nan
field min nan
field max nan
field sum 0
field sqrsum 0
attr interpolationmode none
attr recordingmode histogram
attr source "packetLength(demuxFlow(merge(packetPushedIn, packetPulledIn)))"
attr title "flow specific incoming packet lengths"
attr unit b
bin	-inf	0
bin	0	0
bin	1	0
par TimeSyncUEUE.FGS.nwtt[0].tt[1].phyLayer.transmitter typename "\"inet.protocolelement.transceiver.PacketTransmitter\""
par TimeSyncUEUE.FGS.nwtt[0].tt[1].phyLayer.transmitter displayStringTextFormat "\"processed %p pk (%l)\""
par TimeSyncUEUE.FGS.nwtt[0].tt[1].phyLayer.transmitter clockModule "\"TimeSyncUEUE.FGS.nwtt[0].tt[1].clock\""
par TimeSyncUEUE.FGS.nwtt[0].tt[1].phyLayer.transmitter datarate this.bitrate
attr unit bps
scalar TimeSyncUEUE.FGS.nwtt[0].tt[1].phyLayer.transmitter propagationTime 0
statistic TimeSyncUEUE.FGS.nwtt[0].tt[1].phyLayer.transmitter utilization:histogram
field count 0
field mean -nan
field stddev nan
field min nan
field max nan
field sum 0
field sqrsum 0
attr interpolationmode linear
attr recordingmode histogram
attr source "100 * utilization(count(transmissionStarted) - count(transmissionEnded))"
attr title utilization
attr unit %
bin	-inf	0
bin	0	0
bin	1	0
statistic TimeSyncUEUE.FGS.nwtt[0].tt[1].phyLayer.transmitter transmissionTime:histogram
field count 0
field mean -nan
field stddev nan
field min nan
field max nan
field sum 0
field sqrsum 0
attr interpolationmode none
attr recordingmode histogram
attr source packetDuration(transmissionEnded)
attr title "transmission time"
attr unit s
bin	-inf	0
bin	0	0
bin	1	0
statistic TimeSyncUEUE.FGS.nwtt[0].tt[1].phyLayer.transmitter flowTransmissionTime:histogram
field count 0
field mean -nan
field stddev nan
field min nan
field max nan
field sum 0
field sqrsum 0
attr interpolationmode none
attr recordingmode histogram
attr source packetDuration(demuxFlow(transmissionEnded))
attr title "flow transmission time"
attr unit s
bin	-inf	0
bin	0	0
bin	1	0
par TimeSyncUEUE.FGS.nwtt[0].tt[1].phyLayer.phyHeaderChecker typename "\"inet.physicallayer.wired.ethernet.EthernetPhyHeaderChecker\""
par TimeSyncUEUE.FGS.nwtt[0].tt[1].phyLayer.phyHeaderChecker displayStringTextFormat "\"dropped %d/%p pk (%k/%l)\""
par TimeSyncUEUE.FGS.nwtt[0].tt[1].phyLayer.phyHeaderChecker backpressure false
scalar TimeSyncUEUE.FGS.nwtt[0].tt[1].phyLayer.phyHeaderChecker outgoingPackets:count 0
attr recordingmode count
attr source "merge(packetPushedOut, packetPulledOut)"
attr title "outgoing packets, count"
attr unit pk
scalar TimeSyncUEUE.FGS.nwtt[0].tt[1].phyLayer.phyHeaderChecker outgoingPacketLengths:sum 0
attr interpolationmode none
attr recordingmode sum
attr source "packetLength(merge(packetPushedOut, packetPulledOut))"
attr title "outgoing packet lengths, sum"
attr unit b
statistic TimeSyncUEUE.FGS.nwtt[0].tt[1].phyLayer.phyHeaderChecker outgoingPacketLengths:histogram
field count 0
field mean -nan
field stddev nan
field min nan
field max nan
field sum 0
field sqrsum 0
attr interpolationmode none
attr recordingmode histogram
attr source "packetLength(merge(packetPushedOut, packetPulledOut))"
attr title "outgoing packet lengths"
attr unit b
bin	-inf	0
bin	0	0
bin	1	0
scalar TimeSyncUEUE.FGS.nwtt[0].tt[1].phyLayer.phyHeaderChecker flowOutgoingPacketLengths:sum 0
attr interpolationmode none
attr recordingmode sum
attr source "packetLength(demuxFlow(merge(packetPushedOut, packetPulledOut)))"
attr title "flow specific outgoing packet lengths, sum"
attr unit b
statistic TimeSyncUEUE.FGS.nwtt[0].tt[1].phyLayer.phyHeaderChecker flowOutgoingPacketLengths:histogram
field count 0
field mean -nan
field stddev nan
field min nan
field max nan
field sum 0
field sqrsum 0
attr interpolationmode none
attr recordingmode histogram
attr source "packetLength(demuxFlow(merge(packetPushedOut, packetPulledOut)))"
attr title "flow specific outgoing packet lengths"
attr unit b
bin	-inf	0
bin	0	0
bin	1	0
scalar TimeSyncUEUE.FGS.nwtt[0].tt[1].phyLayer.phyHeaderChecker incomingPackets:count 0
attr recordingmode count
attr source "merge(packetPushedIn, packetPulledIn)"
attr title "incoming packets, count"
attr unit pk
scalar TimeSyncUEUE.FGS.nwtt[0].tt[1].phyLayer.phyHeaderChecker incomingPacketLengths:sum 0
attr interpolationmode none
attr recordingmode sum
attr source "packetLength(merge(packetPushedIn, packetPulledIn))"
attr title "incoming packet lengths, sum"
attr unit b
statistic TimeSyncUEUE.FGS.nwtt[0].tt[1].phyLayer.phyHeaderChecker incomingPacketLengths:histogram
field count 0
field mean -nan
field stddev nan
field min nan
field max nan
field sum 0
field sqrsum 0
attr interpolationmode none
attr recordingmode histogram
attr source "packetLength(merge(packetPushedIn, packetPulledIn))"
attr title "incoming packet lengths"
attr unit b
bin	-inf	0
bin	0	0
bin	1	0
scalar TimeSyncUEUE.FGS.nwtt[0].tt[1].phyLayer.phyHeaderChecker flowIncomingPacketLengths:sum 0
attr interpolationmode none
attr recordingmode sum
attr source "packetLength(demuxFlow(merge(packetPushedIn, packetPulledIn)))"
attr title "flow specific incoming packet lengths, sum"
attr unit b
statistic TimeSyncUEUE.FGS.nwtt[0].tt[1].phyLayer.phyHeaderChecker flowIncomingPacketLengths:histogram
field count 0
field mean -nan
field stddev nan
field min nan
field max nan
field sum 0
field sqrsum 0
attr interpolationmode none
attr recordingmode histogram
attr source "packetLength(demuxFlow(merge(packetPushedIn, packetPulledIn)))"
attr title "flow specific incoming packet lengths"
attr unit b
bin	-inf	0
bin	0	0
bin	1	0
scalar TimeSyncUEUE.FGS.nwtt[0].tt[1].phyLayer.phyHeaderChecker droppedPackets:count 0
attr recordingmode count
attr source packetDropped
attr title "dropped packets, count"
attr unit pk
scalar TimeSyncUEUE.FGS.nwtt[0].tt[1].phyLayer.phyHeaderChecker droppedPacketLengths:sum 0
attr interpolationmode none
attr recordingmode sum
attr source packetLength(packetDropped)
attr title "dropped packet lengths, sum"
attr unit b
statistic TimeSyncUEUE.FGS.nwtt[0].tt[1].phyLayer.phyHeaderChecker droppedPacketLengths:histogram
field count 0
field mean -nan
field stddev nan
field min nan
field max nan
field sum 0
field sqrsum 0
attr interpolationmode none
attr recordingmode histogram
attr source packetLength(packetDropped)
attr title "dropped packet lengths"
attr unit b
bin	-inf	0
bin	0	0
bin	1	0
scalar TimeSyncUEUE.FGS.nwtt[0].tt[1].phyLayer.phyHeaderChecker flowDroppedPacketLengths:sum 0
attr interpolationmode none
attr recordingmode sum
attr source packetLength(demuxFlow(packetDropped))
attr title "flow specific dropped packet lengths, sum"
attr unit b
statistic TimeSyncUEUE.FGS.nwtt[0].tt[1].phyLayer.phyHeaderChecker flowDroppedPacketLengths:histogram
field count 0
field mean -nan
field stddev nan
field min nan
field max nan
field sum 0
field sqrsum 0
attr interpolationmode none
attr recordingmode histogram
attr source packetLength(demuxFlow(packetDropped))
attr title "flow specific dropped packet lengths"
attr unit b
bin	-inf	0
bin	0	0
bin	1	0
par TimeSyncUEUE.FGS.nwtt[0].tt[1].phyLayer.inboundEmitter typename "\"inet.protocolelement.common.PacketEmitter\""
par TimeSyncUEUE.FGS.nwtt[0].tt[1].phyLayer.inboundEmitter displayStringTextFormat "\"processed %p pk (%l)\""
par TimeSyncUEUE.FGS.nwtt[0].tt[1].phyLayer.inboundEmitter packetFilter "(omnetpp::cValueHolder)holder: \"*\""
par TimeSyncUEUE.FGS.nwtt[0].tt[1].phyLayer.inboundEmitter direction "\"inbound\""
attr enum undefined,inbound,outbound
par TimeSyncUEUE.FGS.nwtt[0].tt[1].phyLayer.inboundEmitter signalName "\"packetReceivedFromLower\""
scalar TimeSyncUEUE.FGS.nwtt[0].tt[1].phyLayer.inboundEmitter outgoingPackets:count 0
attr recordingmode count
attr source "merge(packetPushedOut, packetPulledOut)"
attr title "outgoing packets, count"
attr unit pk
scalar TimeSyncUEUE.FGS.nwtt[0].tt[1].phyLayer.inboundEmitter outgoingPacketLengths:sum 0
attr interpolationmode none
attr recordingmode sum
attr source "packetLength(merge(packetPushedOut, packetPulledOut))"
attr title "outgoing packet lengths, sum"
attr unit b
statistic TimeSyncUEUE.FGS.nwtt[0].tt[1].phyLayer.inboundEmitter outgoingPacketLengths:histogram
field count 0
field mean -nan
field stddev nan
field min nan
field max nan
field sum 0
field sqrsum 0
attr interpolationmode none
attr recordingmode histogram
attr source "packetLength(merge(packetPushedOut, packetPulledOut))"
attr title "outgoing packet lengths"
attr unit b
bin	-inf	0
bin	0	0
bin	1	0
scalar TimeSyncUEUE.FGS.nwtt[0].tt[1].phyLayer.inboundEmitter flowOutgoingPacketLengths:sum 0
attr interpolationmode none
attr recordingmode sum
attr source "packetLength(demuxFlow(merge(packetPushedOut, packetPulledOut)))"
attr title "flow specific outgoing packet lengths, sum"
attr unit b
statistic TimeSyncUEUE.FGS.nwtt[0].tt[1].phyLayer.inboundEmitter flowOutgoingPacketLengths:histogram
field count 0
field mean -nan
field stddev nan
field min nan
field max nan
field sum 0
field sqrsum 0
attr interpolationmode none
attr recordingmode histogram
attr source "packetLength(demuxFlow(merge(packetPushedOut, packetPulledOut)))"
attr title "flow specific outgoing packet lengths"
attr unit b
bin	-inf	0
bin	0	0
bin	1	0
scalar TimeSyncUEUE.FGS.nwtt[0].tt[1].phyLayer.inboundEmitter incomingPackets:count 0
attr recordingmode count
attr source "merge(packetPushedIn, packetPulledIn)"
attr title "incoming packets, count"
attr unit pk
scalar TimeSyncUEUE.FGS.nwtt[0].tt[1].phyLayer.inboundEmitter incomingPacketLengths:sum 0
attr interpolationmode none
attr recordingmode sum
attr source "packetLength(merge(packetPushedIn, packetPulledIn))"
attr title "incoming packet lengths, sum"
attr unit b
statistic TimeSyncUEUE.FGS.nwtt[0].tt[1].phyLayer.inboundEmitter incomingPacketLengths:histogram
field count 0
field mean -nan
field stddev nan
field min nan
field max nan
field sum 0
field sqrsum 0
attr interpolationmode none
attr recordingmode histogram
attr source "packetLength(merge(packetPushedIn, packetPulledIn))"
attr title "incoming packet lengths"
attr unit b
bin	-inf	0
bin	0	0
bin	1	0
scalar TimeSyncUEUE.FGS.nwtt[0].tt[1].phyLayer.inboundEmitter flowIncomingPacketLengths:sum 0
attr interpolationmode none
attr recordingmode sum
attr source "packetLength(demuxFlow(merge(packetPushedIn, packetPulledIn)))"
attr title "flow specific incoming packet lengths, sum"
attr unit b
statistic TimeSyncUEUE.FGS.nwtt[0].tt[1].phyLayer.inboundEmitter flowIncomingPacketLengths:histogram
field count 0
field mean -nan
field stddev nan
field min nan
field max nan
field sum 0
field sqrsum 0
attr interpolationmode none
attr recordingmode histogram
attr source "packetLength(demuxFlow(merge(packetPushedIn, packetPulledIn)))"
attr title "flow specific incoming packet lengths"
attr unit b
bin	-inf	0
bin	0	0
bin	1	0
par TimeSyncUEUE.FGS.nwtt[0].tt[1].phyLayer.receiver typename "\"inet.protocolelement.transceiver.PacketReceiver\""
par TimeSyncUEUE.FGS.nwtt[0].tt[1].phyLayer.receiver displayStringTextFormat "\"processed %p pk (%l)\""
par TimeSyncUEUE.FGS.nwtt[0].tt[1].phyLayer.receiver datarate "inf bps"
attr unit bps
statistic TimeSyncUEUE.FGS.nwtt[0].tt[1].phyLayer.receiver receptionTime:histogram
field count 0
field mean -nan
field stddev nan
field min nan
field max nan
field sum 0
field sqrsum 0
attr interpolationmode none
attr recordingmode histogram
attr source packetDuration(receptionEnded)
attr title "reception time"
attr unit s
bin	-inf	0
bin	0	0
bin	1	0
statistic TimeSyncUEUE.FGS.nwtt[0].tt[1].phyLayer.receiver flowReceptionTime:histogram
field count 0
field mean -nan
field stddev nan
field min nan
field max nan
field sum 0
field sqrsum 0
attr interpolationmode none
attr recordingmode histogram
attr source packetDuration(demuxFlow(receptionEnded))
attr title "flow reception time"
attr unit s
bin	-inf	0
bin	0	0
bin	1	0
par TimeSyncUEUE.FGS.nwtt[0].tt[1].phyLayer typename "\"inet.physicallayer.wired.ethernet.EthernetPhyLayer\""
par TimeSyncUEUE.FGS.nwtt[0].tt[1].phyLayer bitrate this.bitrate
attr unit bps
par TimeSyncUEUE.FGS.nwtt[0].tt[1].delayLayer.upperLayerIn.channel typename "\"ned.IdealChannel\""
par TimeSyncUEUE.FGS.nwtt[0].tt[1].delayLayer.egress.out.channel typename "\"ned.IdealChannel\""
par TimeSyncUEUE.FGS.nwtt[0].tt[1].delayLayer.lowerLayerIn.channel typename "\"ned.IdealChannel\""
par TimeSyncUEUE.FGS.nwtt[0].tt[1].delayLayer.egress typename "\"src.delayer.FGDelayer\""
par TimeSyncUEUE.FGS.nwtt[0].tt[1].delayLayer.egress displayStringTextFormat "\"processed %p pk (%l)\""
par TimeSyncUEUE.FGS.nwtt[0].tt[1].delayLayer.egress clockModule "\"TimeSyncUEUE.FGS.nwtt[0].tt[1].clock\""
par TimeSyncUEUE.FGS.nwtt[0].tt[1].delayLayer.egress schedulingPriority 0
par TimeSyncUEUE.FGS.nwtt[0].tt[1].delayLayer.egress scheduleZeroDelay true
par TimeSyncUEUE.FGS.nwtt[0].tt[1].delayLayer.egress delay this.delay
attr unit s
par TimeSyncUEUE.FGS.nwtt[0].tt[1].delayLayer.egress delayQFI dup(this.delayQFI)
attr mutable ""
attr unit s
par TimeSyncUEUE.FGS.nwtt[0].tt[1].delayLayer typename "\"src.delayer.FGDelayLayer\""
par TimeSyncUEUE.FGS.nwtt[0].tt[1].delayLayer delay "isDstt ? this.delayD2D : this.delayDownlink"
attr mutable ""
attr unit s
par TimeSyncUEUE.FGS.nwtt[0].tt[1].delayLayer delayQFI "{  }"
attr mutable ""
attr unit s
par TimeSyncUEUE.FGS.nwtt[0].tt[1] typename "\"src.devices.tsntranslator.TTInterface\""
par TimeSyncUEUE.FGS.nwtt[0].tt[1] displayStringTextFormat "\"%a (%i)\\n%m\""
par TimeSyncUEUE.FGS.nwtt[0].tt[1] recordPcap false
par TimeSyncUEUE.FGS.nwtt[0].tt[1] numPcapRecorders 0
par TimeSyncUEUE.FGS.nwtt[0].tt[1] protocol "\"ethernetmac\""
par TimeSyncUEUE.FGS.nwtt[0].tt[1] broadcast true
par TimeSyncUEUE.FGS.nwtt[0].tt[1] multicast true
par TimeSyncUEUE.FGS.nwtt[0].tt[1] address "\"0A-AA-00-00-00-0C\""
attr mutable ""
par TimeSyncUEUE.FGS.nwtt[0].tt[1] bitrate "inf bps"
attr unit bps
par TimeSyncUEUE.FGS.nwtt[0].tt[1] mtu 1500B
attr unit B
par TimeSyncUEUE.FGS.nwtt[0].tt[1] interfaceTableModule "\"TimeSyncUEUE.FGS.nwtt[0].interfaceTable\""
scalar TimeSyncUEUE.FGS.nwtt[0].tt[1] packetDropInterfaceDown:count 0
attr interpolationmode none
attr recordingmode count
attr source packetDropReasonIsInterfaceDown(packetDropped)
attr title "packet drops: interface down, count"
scalar TimeSyncUEUE.FGS.nwtt[0].tt[1] packetDropInterfaceDown:sum(packetBytes) 0
attr interpolationmode none
attr recordingmode sum(packetBytes)
attr source packetDropReasonIsInterfaceDown(packetDropped)
attr title "packet drops: interface down, sum(packetBytes)"
scalar TimeSyncUEUE.FGS.nwtt[0].tt[1] packetDropNoCarrier:count 0
attr interpolationmode none
attr recordingmode count
attr source packetDropReasonIsNoCarrier(packetDropped)
attr title "packet drops: no carrier, count"
scalar TimeSyncUEUE.FGS.nwtt[0].tt[1] packetDropNoCarrier:sum(packetBytes) 0
attr interpolationmode none
attr recordingmode sum(packetBytes)
attr source packetDropReasonIsNoCarrier(packetDropped)
attr title "packet drops: no carrier, sum(packetBytes)"
par TimeSyncUEUE.FGS.nwtt[0] typename "\"src.devices.tsntranslator.TT\""
par TimeSyncUEUE.FGS.nwtt[0] recordPcap false
par TimeSyncUEUE.FGS.nwtt[0] numPcapRecorders 0
par TimeSyncUEUE.FGS.nwtt[0] numApps 0
par TimeSyncUEUE.FGS.nwtt[0] hasStatus false
par TimeSyncUEUE.FGS.nwtt[0] hasStp false
par TimeSyncUEUE.FGS.nwtt[0] hasGptp true
par TimeSyncUEUE.FGS.nwtt[0] hasCutthroughSwitching false
par TimeSyncUEUE.FGS.nwtt[0] fcsMode "\"declared\""
attr enum declared,computed
par TimeSyncUEUE.FGS.nwtt[0] spanningTreeProtocol "\"Stp\""
par TimeSyncUEUE.FGS.nwtt[0] numEthInterfaces 0
par TimeSyncUEUE.FGS.nwtt[0] hasTimeSynchronization true
par TimeSyncUEUE.FGS.nwtt[0] hasIngressTrafficFiltering false
par TimeSyncUEUE.FGS.nwtt[0] hasEgressTrafficShaping false
par TimeSyncUEUE.FGS.nwtt[0] hasStreamRedundancy false
par TimeSyncUEUE.FGS.nwtt[0] hasIncomingStreams false
par TimeSyncUEUE.FGS.nwtt[0] hasOutgoingStreams false
par TimeSyncUEUE.FGS.nwtt[0] hasFramePreemption false
par TimeSyncUEUE.FGS.nwtt[0] numTtInterfaces 0
par TimeSyncUEUE.FGS.nwtt[0] isDstt false
par TimeSyncUEUE.FGS.nwtt[0] schedule false
par TimeSyncUEUE.FGS.nwtt[0] delayUplink 0s
attr mutable ""
attr unit s
par TimeSyncUEUE.FGS.nwtt[0] delayDownlink "rngProvider(\"histogramContainer\", \"s10DL\")"
attr mutable ""
attr unit s
par TimeSyncUEUE.FGS.nwtt[0] delayD2D 0s
attr mutable ""
attr unit s
par TimeSyncUEUE.FGS.nwtt[0] delayQFI "{  }"
attr mutable ""
attr unit s
par TimeSyncUEUE.FGS typename "\"src.devices.FiveGSv2\""
par TimeSyncUEUE.FGS scheduleFiveG false
par TimeSyncUEUE.FGS numUEs 1
par TimeSyncUEUE.FGS numUPFs 1
par TimeSyncUEUE.FGS delayConfig "<delays/> at content:1"
par TimeSyncUEUE.FGS bgbW 350
par TimeSyncUEUE typename "\"simulations.TimeSynchronization.TimeSyncUEUE\""
par TimeSyncUEUE recordPcap false
par TimeSyncUEUE numPcapRecorders 0
par TimeSyncUEUE hasGlobalArp true

