file 12531217 1736141979                                        
version 3
run UEUE5-0-20250106-02:39:34-243067
attr configname UEUE5
attr datetime 20250106-02:39:34
attr datetimef 20250106-023934
attr experiment UEUE5
attr inifile omnetppTest.ini
attr iterationvars ""
attr iterationvarsd ""
attr iterationvarsf ""
attr measurement ""
attr network TimeSyncUEUE
attr processid 243067
attr repetition 0
attr replication #0
attr resultdir results
attr runnumber 0
attr seedset 0
config image-path ../../../inet4.5-2/images
config extends UE-UE
config *.FGS.nwtt[*].clock.typename IdealClock
config *.FGS.dstt[1].clock.typename IdealClock
config *.FGS.dstt[0].clock.oscillator.typename RandomDriftOscillator
config **.clock.oscillator.typename ConstantDriftOscillator
config *.TsnSwitchDomain1.clock.oscillator.driftRate 0ppm
config *.FGS.dstt[*].clock.oscillator.driftRate 0ppm
config *.FGS.dstt[*].clock.oscillator.changeInterval 100ms
config *.FGS.dstt[*].clock.oscillator.driftRateChange "uniform(-1ppm, 1ppm)"
config **.oscillator.driftRateChangeUpperLimit 2ppm
config **.oscillator.driftRateChangeLowerLimit -2ppm
config *.*.clock.oscillator.driftRate 100ppm
config network TimeSyncUEUE
config *.TsnSwitchDomain1.gptp.gptpNodeType "\"MASTER_NODE\""
config *.TsnSwitchDomain1.gptp.masterPorts "[\"eth0\"]"
config *.TsnSwitchDomain1.gptp.slavePort "\"\""
config *.TsnSwitchDataNetwork.gptp.slavePort "\"eth0\""
config *.TsnSwitchDataNetwork.gptp.masterPorts []
config *.TsnSwitchDomain2.gptp.slavePort "\"eth0\""
config *.TsnSwitchDomain2.gptp.masterPorts []
config *.FGS.dstt[0].gptp.domain[*].masterPorts "[\"tt1\"]"
config *.FGS.dstt[0].gptp.domain[*].slavePort "\"eth0\""
config *.FGS.dstt[1].gptp.domain[*].masterPorts "[\"eth0\"]"
config *.FGS.dstt[1].gptp.domain[*].slavePort "\"tt1\""
config *.FGS.nwtt[*].gptp.domain[*].masterPorts "[\"eth0\"]"
config *.FGS.nwtt[*].gptp.domain[*].slavePort "\"tt0\""
config **.referenceClock "\"TsnSwitchDomain1.clock\""
config *.TsnSwitchDomain1.clock.displayStringTextFormat "\"time: %T\""
config *.TsnSwitchDataNetwork.clock.displayStringTextFormat "\"diff: %d\""
config *.TsnSwitchDomain2.clock.displayStringTextFormat "\"diff: %d\""
config network TimeSyncUEUE
config sim-time-limit 100s
config *.histogramContainer.histograms "{s1UL: \"../../../deterministic6g_data/PD-Wireless-5G-1/s1-UL_wall.xml\",\n\t\t\t\t\t\t\t\t\ts3UL: \"../../../deterministic6g_data/PD-Wireless-5G-1/s3-UL_wall.xml\",\n\t\t\t\t\t\t\t\t\ts4UL: \"../../../deterministic6g_data/PD-Wireless-5G-1/s4-UL_wall.xml\",\n\t\t\t\t\t\t\t\t\ts6UL: \"../../../deterministic6g_data/PD-Wireless-5G-1/s6-UL_wall.xml\",\n\t\t\t\t\t\t\t\t\ts7UL: \"../../../deterministic6g_data/PD-Wireless-5G-1/s7-UL_wall.xml\",\n\t\t\t\t\t\t\t\t\ts8UL: \"../../../deterministic6g_data/PD-Wireless-5G-1/s8-UL_wall.xml\",\n\t\t\t\t\t\t\t\t\ts9UL: \"../../../deterministic6g_data/PD-Wireless-5G-1/s9-UL_wall.xml\",\n\t\t\t\t\t\t\t\t\ts10DL: \"../../../deterministic6g_data/PD-Wireless-5G-1/s10-DL_wall.xml\",\n\t\t\t\t\t\t\t\t\ts19DL: \"../../../deterministic6g_data/PD-Wireless-5G-1/s19-DL_wall.xml\",\n\t\t\t\t\t\t\t\t\ts20UL: \"../../../deterministic6g_data/PD-Wireless-5G-1/s20-UL_wall.xml\",\n\t\t\t\t\t\t\t\t\ts22UL: \"../../../deterministic6g_data/PD-Wireless-5G-1/s22-UL_wall.xml\",\n\t\t\t\t\t\t\t\t\ts23DL: \"../../../deterministic6g_data/PD-Wireless-5G-1/s23-DL_wall.xml\",\n\t\t\t\t\t\t\t\t\ts24UL: \"../../../deterministic6g_data/PD-Wireless-5G-1/s24-UL_wall.xml\",\n\t\t\t\t\t\t\t\t\ts25DL: \"../../../deterministic6g_data/PD-Wireless-5G-1/s25-DL_wall.xml\",\n\t\t\t\t\t\t\t\t\ts26UL: \"../../../deterministic6g_data/PD-Wireless-5G-1/s26-UL_wall.xml\"}"
config *.FGS.d*.delayUplink "rngProvider(\"histogramContainer\",\"s1UL\")"
config *.FGS.n*.delayDownlink "rngProvider(\"histogramContainer\",\"s10DL\")"
config *.FGS.d*.delayD2D "rngProvider(\"histogramContainer\",\"s1UL\")+rngProvider(\"histogramContainer\",\"s10DL\")"
config *.**.hasTimeSynchronization true
config *.visualizer.typename IntegratedMultiCanvasVisualizer
config *.visualizer.infoVisualizer[*].displayInfos true
config *.visualizer.dataLinkVisualizer[0].displayLinks true
config *.visualizer.dataLinkVisualizer[0].activityLevel "\"protocol\""
config *.visualizer.dataLinkVisualizer[0].packetFilter "\"GptpSync\""
config *.visualizer.dataLinkVisualizer[0].lineColor "\"blue2\""
config *.visualizer.numInfoVisualizers 3
config *.visualizer.infoVisualizer[0].modules "\"*.TsnSwitchDataNetwork.clock\""
config *.visualizer.infoVisualizer[1].modules "\"*.TsnSwitchDomain1.clock\""
config *.visualizer.infoVisualizer[1].placementHint "\"topLeft\""
config *.visualizer.infoVisualizer[2].modules "\"*.TsnSwitchDomain2*.clock\""
config *.visualizer.infoVisualizer[2].placementHint "\"topRight\""

vector 0 TimeSyncUEUE.TsnSwitchDomain1.eth[0].macLayer.queue queueLength:vector ETV
attr autoWarmupFilter false
attr interpolationmode sample-hold
attr recordingmode vector
attr source "warmup(atomic(constant0(packetPushEnded) + count(packetPushStarted) - count(packetPulled) - count(packetRemoved) - count(packetDropped)))"
attr title "queue length"
attr unit pk
vector 1 TimeSyncUEUE.TsnSwitchDomain1.eth[0].macLayer.queue queueBitLength:vector ETV
attr autoWarmupFilter false
attr interpolationmode sample-hold
attr recordingmode vector
attr source "warmup(atomic(constant0(packetPushEnded) + sum(packetLength(packetPushStarted)) - sum(packetLength(packetPulled)) - sum(packetLength(packetRemoved)) - sum(packetLength(packetDropped))))"
attr title "queue bit length"
attr unit b
vector 2 TimeSyncUEUE.TsnSwitchDomain1.eth[0].phyLayer.interFrameGapInserter interpacketGap:vector ETV
attr interpolationmode sample-hold
attr recordingmode vector
attr source "count(interpacketGapStarted) - count(interpacketGapEnded)"
attr title "interpacket gap state"
attr type int
vector 3 TimeSyncUEUE.TsnSwitchDomain1.eth[0].phyLayer.transmitter transmitting:vector ETV
attr interpolationmode sample-hold
attr recordingmode vector
attr source "count(transmissionStarted) - count(transmissionEnded)"
attr title "transmitting state"
attr type int
vector 4 TimeSyncUEUE.TsnSwitchDomain1.udp passedUpPk:vector(count) ETV
attr interpolationmode none
attr recordingmode vector(count)
attr source packetSentToUpper
attr title "packets passed up, count"
vector 5 TimeSyncUEUE.TsnSwitchDomain1.udp droppedPkWrongPort:vector(count) ETV
attr interpolationmode none
attr recordingmode vector(count)
attr source packetDropReasonIsNoPortFound(packetDropped)
attr title "packets dropped (wrong port), count"
vector 6 TimeSyncUEUE.TsnSwitchDomain1.udp droppedPkBadChecksum:vector(count) ETV
attr interpolationmode none
attr recordingmode vector(count)
attr source packetDropReasonIsIncorrectlyReceived(packetDropped)
attr title "packets dropped (checksum error), count"
vector 7 TimeSyncUEUE.TsnSwitchDomain2.eth[0].macLayer.queue queueLength:vector ETV
attr autoWarmupFilter false
attr interpolationmode sample-hold
attr recordingmode vector
attr source "warmup(atomic(constant0(packetPushEnded) + count(packetPushStarted) - count(packetPulled) - count(packetRemoved) - count(packetDropped)))"
attr title "queue length"
attr unit pk
vector 8 TimeSyncUEUE.TsnSwitchDomain2.eth[0].macLayer.queue queueBitLength:vector ETV
attr autoWarmupFilter false
attr interpolationmode sample-hold
attr recordingmode vector
attr source "warmup(atomic(constant0(packetPushEnded) + sum(packetLength(packetPushStarted)) - sum(packetLength(packetPulled)) - sum(packetLength(packetRemoved)) - sum(packetLength(packetDropped))))"
attr title "queue bit length"
attr unit b
vector 9 TimeSyncUEUE.TsnSwitchDomain2.eth[0].phyLayer.interFrameGapInserter interpacketGap:vector ETV
attr interpolationmode sample-hold
attr recordingmode vector
attr source "count(interpacketGapStarted) - count(interpacketGapEnded)"
attr title "interpacket gap state"
attr type int
vector 10 TimeSyncUEUE.TsnSwitchDomain2.eth[0].phyLayer.transmitter transmitting:vector ETV
attr interpolationmode sample-hold
attr recordingmode vector
attr source "count(transmissionStarted) - count(transmissionEnded)"
attr title "transmitting state"
attr type int
vector 11 TimeSyncUEUE.TsnSwitchDomain2.udp passedUpPk:vector(count) ETV
attr interpolationmode none
attr recordingmode vector(count)
attr source packetSentToUpper
attr title "packets passed up, count"
vector 12 TimeSyncUEUE.TsnSwitchDomain2.udp droppedPkWrongPort:vector(count) ETV
attr interpolationmode none
attr recordingmode vector(count)
attr source packetDropReasonIsNoPortFound(packetDropped)
attr title "packets dropped (wrong port), count"
vector 13 TimeSyncUEUE.TsnSwitchDomain2.udp droppedPkBadChecksum:vector(count) ETV
attr interpolationmode none
attr recordingmode vector(count)
attr source packetDropReasonIsIncorrectlyReceived(packetDropped)
attr title "packets dropped (checksum error), count"
vector 14 TimeSyncUEUE.TsnSwitchDataNetwork.eth[0].macLayer.queue queueLength:vector ETV
attr autoWarmupFilter false
attr interpolationmode sample-hold
attr recordingmode vector
attr source "warmup(atomic(constant0(packetPushEnded) + count(packetPushStarted) - count(packetPulled) - count(packetRemoved) - count(packetDropped)))"
attr title "queue length"
attr unit pk
vector 15 TimeSyncUEUE.TsnSwitchDataNetwork.eth[0].macLayer.queue queueBitLength:vector ETV
attr autoWarmupFilter false
attr interpolationmode sample-hold
attr recordingmode vector
attr source "warmup(atomic(constant0(packetPushEnded) + sum(packetLength(packetPushStarted)) - sum(packetLength(packetPulled)) - sum(packetLength(packetRemoved)) - sum(packetLength(packetDropped))))"
attr title "queue bit length"
attr unit b
vector 16 TimeSyncUEUE.TsnSwitchDataNetwork.eth[0].phyLayer.interFrameGapInserter interpacketGap:vector ETV
attr interpolationmode sample-hold
attr recordingmode vector
attr source "count(interpacketGapStarted) - count(interpacketGapEnded)"
attr title "interpacket gap state"
attr type int
vector 17 TimeSyncUEUE.TsnSwitchDataNetwork.eth[0].phyLayer.transmitter transmitting:vector ETV
attr interpolationmode sample-hold
attr recordingmode vector
attr source "count(transmissionStarted) - count(transmissionEnded)"
attr title "transmitting state"
attr type int
vector 18 TimeSyncUEUE.TsnSwitchDataNetwork.udp passedUpPk:vector(count) ETV
attr interpolationmode none
attr recordingmode vector(count)
attr source packetSentToUpper
attr title "packets passed up, count"
vector 19 TimeSyncUEUE.TsnSwitchDataNetwork.udp droppedPkWrongPort:vector(count) ETV
attr interpolationmode none
attr recordingmode vector(count)
attr source packetDropReasonIsNoPortFound(packetDropped)
attr title "packets dropped (wrong port), count"
vector 20 TimeSyncUEUE.TsnSwitchDataNetwork.udp droppedPkBadChecksum:vector(count) ETV
attr interpolationmode none
attr recordingmode vector(count)
attr source packetDropReasonIsIncorrectlyReceived(packetDropped)
attr title "packets dropped (checksum error), count"
vector 21 TimeSyncUEUE.FGS.dstt[0].eth[0].macLayer.queue queueLength:vector ETV
attr autoWarmupFilter false
attr interpolationmode sample-hold
attr recordingmode vector
attr source "warmup(atomic(constant0(packetPushEnded) + count(packetPushStarted) - count(packetPulled) - count(packetRemoved) - count(packetDropped)))"
attr title "queue length"
attr unit pk
vector 22 TimeSyncUEUE.FGS.dstt[0].eth[0].macLayer.queue queueBitLength:vector ETV
attr autoWarmupFilter false
attr interpolationmode sample-hold
attr recordingmode vector
attr source "warmup(atomic(constant0(packetPushEnded) + sum(packetLength(packetPushStarted)) - sum(packetLength(packetPulled)) - sum(packetLength(packetRemoved)) - sum(packetLength(packetDropped))))"
attr title "queue bit length"
attr unit b
vector 23 TimeSyncUEUE.FGS.dstt[0].eth[0].phyLayer.interFrameGapInserter interpacketGap:vector ETV
attr interpolationmode sample-hold
attr recordingmode vector
attr source "count(interpacketGapStarted) - count(interpacketGapEnded)"
attr title "interpacket gap state"
attr type int
vector 24 TimeSyncUEUE.FGS.dstt[0].eth[0].phyLayer.transmitter transmitting:vector ETV
attr interpolationmode sample-hold
attr recordingmode vector
attr source "count(transmissionStarted) - count(transmissionEnded)"
attr title "transmitting state"
attr type int
vector 25 TimeSyncUEUE.FGS.dstt[0].tt[0].macLayer.queue queueLength:vector ETV
attr autoWarmupFilter false
attr interpolationmode sample-hold
attr recordingmode vector
attr source "warmup(atomic(constant0(packetPushEnded) + count(packetPushStarted) - count(packetPulled) - count(packetRemoved) - count(packetDropped)))"
attr title "queue length"
attr unit pk
vector 26 TimeSyncUEUE.FGS.dstt[0].tt[0].macLayer.queue queueBitLength:vector ETV
attr autoWarmupFilter false
attr interpolationmode sample-hold
attr recordingmode vector
attr source "warmup(atomic(constant0(packetPushEnded) + sum(packetLength(packetPushStarted)) - sum(packetLength(packetPulled)) - sum(packetLength(packetRemoved)) - sum(packetLength(packetDropped))))"
attr title "queue bit length"
attr unit b
vector 27 TimeSyncUEUE.FGS.dstt[0].tt[0].phyLayer.interFrameGapInserter interpacketGap:vector ETV
attr interpolationmode sample-hold
attr recordingmode vector
attr source "count(interpacketGapStarted) - count(interpacketGapEnded)"
attr title "interpacket gap state"
attr type int
vector 28 TimeSyncUEUE.FGS.dstt[0].tt[0].phyLayer.transmitter transmitting:vector ETV
attr interpolationmode sample-hold
attr recordingmode vector
attr source "count(transmissionStarted) - count(transmissionEnded)"
attr title "transmitting state"
attr type int
vector 29 TimeSyncUEUE.FGS.dstt[0].tt[1].macLayer.queue queueLength:vector ETV
attr autoWarmupFilter false
attr interpolationmode sample-hold
attr recordingmode vector
attr source "warmup(atomic(constant0(packetPushEnded) + count(packetPushStarted) - count(packetPulled) - count(packetRemoved) - count(packetDropped)))"
attr title "queue length"
attr unit pk
vector 30 TimeSyncUEUE.FGS.dstt[0].tt[1].macLayer.queue queueBitLength:vector ETV
attr autoWarmupFilter false
attr interpolationmode sample-hold
attr recordingmode vector
attr source "warmup(atomic(constant0(packetPushEnded) + sum(packetLength(packetPushStarted)) - sum(packetLength(packetPulled)) - sum(packetLength(packetRemoved)) - sum(packetLength(packetDropped))))"
attr title "queue bit length"
attr unit b
vector 31 TimeSyncUEUE.FGS.dstt[0].tt[1].phyLayer.interFrameGapInserter interpacketGap:vector ETV
attr interpolationmode sample-hold
attr recordingmode vector
attr source "count(interpacketGapStarted) - count(interpacketGapEnded)"
attr title "interpacket gap state"
attr type int
vector 32 TimeSyncUEUE.FGS.dstt[0].tt[1].phyLayer.transmitter transmitting:vector ETV
attr interpolationmode sample-hold
attr recordingmode vector
attr source "count(transmissionStarted) - count(transmissionEnded)"
attr title "transmitting state"
attr type int
vector 33 TimeSyncUEUE.FGS.dstt[1].clock timeChanged:vector ETV
attr interpolationmode linear
attr recordingmode vector
attr title "Clock time"
vector 34 TimeSyncUEUE.FGS.dstt[1].eth[0].macLayer.queue queueLength:vector ETV
attr autoWarmupFilter false
attr interpolationmode sample-hold
attr recordingmode vector
attr source "warmup(atomic(constant0(packetPushEnded) + count(packetPushStarted) - count(packetPulled) - count(packetRemoved) - count(packetDropped)))"
attr title "queue length"
attr unit pk
vector 35 TimeSyncUEUE.FGS.dstt[1].eth[0].macLayer.queue queueBitLength:vector ETV
attr autoWarmupFilter false
attr interpolationmode sample-hold
attr recordingmode vector
attr source "warmup(atomic(constant0(packetPushEnded) + sum(packetLength(packetPushStarted)) - sum(packetLength(packetPulled)) - sum(packetLength(packetRemoved)) - sum(packetLength(packetDropped))))"
attr title "queue bit length"
attr unit b
vector 36 TimeSyncUEUE.FGS.dstt[1].eth[0].phyLayer.interFrameGapInserter interpacketGap:vector ETV
attr interpolationmode sample-hold
attr recordingmode vector
attr source "count(interpacketGapStarted) - count(interpacketGapEnded)"
attr title "interpacket gap state"
attr type int
vector 37 TimeSyncUEUE.FGS.dstt[1].eth[0].phyLayer.transmitter transmitting:vector ETV
attr interpolationmode sample-hold
attr recordingmode vector
attr source "count(transmissionStarted) - count(transmissionEnded)"
attr title "transmitting state"
attr type int
vector 38 TimeSyncUEUE.FGS.dstt[1].tt[0].macLayer.queue queueLength:vector ETV
attr autoWarmupFilter false
attr interpolationmode sample-hold
attr recordingmode vector
attr source "warmup(atomic(constant0(packetPushEnded) + count(packetPushStarted) - count(packetPulled) - count(packetRemoved) - count(packetDropped)))"
attr title "queue length"
attr unit pk
vector 39 TimeSyncUEUE.FGS.dstt[1].tt[0].macLayer.queue queueBitLength:vector ETV
attr autoWarmupFilter false
attr interpolationmode sample-hold
attr recordingmode vector
attr source "warmup(atomic(constant0(packetPushEnded) + sum(packetLength(packetPushStarted)) - sum(packetLength(packetPulled)) - sum(packetLength(packetRemoved)) - sum(packetLength(packetDropped))))"
attr title "queue bit length"
attr unit b
vector 40 TimeSyncUEUE.FGS.dstt[1].tt[0].phyLayer.interFrameGapInserter interpacketGap:vector ETV
attr interpolationmode sample-hold
attr recordingmode vector
attr source "count(interpacketGapStarted) - count(interpacketGapEnded)"
attr title "interpacket gap state"
attr type int
vector 41 TimeSyncUEUE.FGS.dstt[1].tt[0].phyLayer.transmitter transmitting:vector ETV
attr interpolationmode sample-hold
attr recordingmode vector
attr source "count(transmissionStarted) - count(transmissionEnded)"
attr title "transmitting state"
attr type int
vector 42 TimeSyncUEUE.FGS.dstt[1].tt[1].macLayer.queue queueLength:vector ETV
attr autoWarmupFilter false
attr interpolationmode sample-hold
attr recordingmode vector
attr source "warmup(atomic(constant0(packetPushEnded) + count(packetPushStarted) - count(packetPulled) - count(packetRemoved) - count(packetDropped)))"
attr title "queue length"
attr unit pk
vector 43 TimeSyncUEUE.FGS.dstt[1].tt[1].macLayer.queue queueBitLength:vector ETV
attr autoWarmupFilter false
attr interpolationmode sample-hold
attr recordingmode vector
attr source "warmup(atomic(constant0(packetPushEnded) + sum(packetLength(packetPushStarted)) - sum(packetLength(packetPulled)) - sum(packetLength(packetRemoved)) - sum(packetLength(packetDropped))))"
attr title "queue bit length"
attr unit b
vector 44 TimeSyncUEUE.FGS.dstt[1].tt[1].phyLayer.interFrameGapInserter interpacketGap:vector ETV
attr interpolationmode sample-hold
attr recordingmode vector
attr source "count(interpacketGapStarted) - count(interpacketGapEnded)"
attr title "interpacket gap state"
attr type int
vector 45 TimeSyncUEUE.FGS.dstt[1].tt[1].phyLayer.transmitter transmitting:vector ETV
attr interpolationmode sample-hold
attr recordingmode vector
attr source "count(transmissionStarted) - count(transmissionEnded)"
attr title "transmitting state"
attr type int
vector 46 TimeSyncUEUE.FGS.nwtt[0].clock timeChanged:vector ETV
attr interpolationmode linear
attr recordingmode vector
attr title "Clock time"
vector 47 TimeSyncUEUE.FGS.nwtt[0].eth[0].macLayer.queue queueLength:vector ETV
attr autoWarmupFilter false
attr interpolationmode sample-hold
attr recordingmode vector
attr source "warmup(atomic(constant0(packetPushEnded) + count(packetPushStarted) - count(packetPulled) - count(packetRemoved) - count(packetDropped)))"
attr title "queue length"
attr unit pk
vector 48 TimeSyncUEUE.FGS.nwtt[0].eth[0].macLayer.queue queueBitLength:vector ETV
attr autoWarmupFilter false
attr interpolationmode sample-hold
attr recordingmode vector
attr source "warmup(atomic(constant0(packetPushEnded) + sum(packetLength(packetPushStarted)) - sum(packetLength(packetPulled)) - sum(packetLength(packetRemoved)) - sum(packetLength(packetDropped))))"
attr title "queue bit length"
attr unit b
vector 49 TimeSyncUEUE.FGS.nwtt[0].eth[0].phyLayer.interFrameGapInserter interpacketGap:vector ETV
attr interpolationmode sample-hold
attr recordingmode vector
attr source "count(interpacketGapStarted) - count(interpacketGapEnded)"
attr title "interpacket gap state"
attr type int
vector 50 TimeSyncUEUE.FGS.nwtt[0].eth[0].phyLayer.transmitter transmitting:vector ETV
attr interpolationmode sample-hold
attr recordingmode vector
attr source "count(transmissionStarted) - count(transmissionEnded)"
attr title "transmitting state"
attr type int
vector 51 TimeSyncUEUE.FGS.nwtt[0].tt[0].macLayer.queue queueLength:vector ETV
attr autoWarmupFilter false
attr interpolationmode sample-hold
attr recordingmode vector
attr source "warmup(atomic(constant0(packetPushEnded) + count(packetPushStarted) - count(packetPulled) - count(packetRemoved) - count(packetDropped)))"
attr title "queue length"
attr unit pk
vector 52 TimeSyncUEUE.FGS.nwtt[0].tt[0].macLayer.queue queueBitLength:vector ETV
attr autoWarmupFilter false
attr interpolationmode sample-hold
attr recordingmode vector
attr source "warmup(atomic(constant0(packetPushEnded) + sum(packetLength(packetPushStarted)) - sum(packetLength(packetPulled)) - sum(packetLength(packetRemoved)) - sum(packetLength(packetDropped))))"
attr title "queue bit length"
attr unit b
vector 53 TimeSyncUEUE.FGS.nwtt[0].tt[0].phyLayer.interFrameGapInserter interpacketGap:vector ETV
attr interpolationmode sample-hold
attr recordingmode vector
attr source "count(interpacketGapStarted) - count(interpacketGapEnded)"
attr title "interpacket gap state"
attr type int
vector 54 TimeSyncUEUE.FGS.nwtt[0].tt[0].phyLayer.transmitter transmitting:vector ETV
attr interpolationmode sample-hold
attr recordingmode vector
attr source "count(transmissionStarted) - count(transmissionEnded)"
attr title "transmitting state"
attr type int
vector 55 TimeSyncUEUE.FGS.nwtt[0].tt[1].macLayer.queue queueLength:vector ETV
attr autoWarmupFilter false
attr interpolationmode sample-hold
attr recordingmode vector
attr source "warmup(atomic(constant0(packetPushEnded) + count(packetPushStarted) - count(packetPulled) - count(packetRemoved) - count(packetDropped)))"
attr title "queue length"
attr unit pk
vector 56 TimeSyncUEUE.FGS.nwtt[0].tt[1].macLayer.queue queueBitLength:vector ETV
attr autoWarmupFilter false
attr interpolationmode sample-hold
attr recordingmode vector
attr source "warmup(atomic(constant0(packetPushEnded) + sum(packetLength(packetPushStarted)) - sum(packetLength(packetPulled)) - sum(packetLength(packetRemoved)) - sum(packetLength(packetDropped))))"
attr title "queue bit length"
attr unit b
vector 57 TimeSyncUEUE.FGS.nwtt[0].tt[1].phyLayer.interFrameGapInserter interpacketGap:vector ETV
attr interpolationmode sample-hold
attr recordingmode vector
attr source "count(interpacketGapStarted) - count(interpacketGapEnded)"
attr title "interpacket gap state"
attr type int
vector 58 TimeSyncUEUE.FGS.nwtt[0].tt[1].phyLayer.transmitter transmitting:vector ETV
attr interpolationmode sample-hold
attr recordingmode vector
attr source "count(transmissionStarted) - count(transmissionEnded)"
attr title "transmitting state"
attr type int
vector 59 TimeSyncUEUE.TsnSwitchDomain1.clock timeChanged:vector ETV
attr interpolationmode linear
attr recordingmode vector
attr title "Clock time"
vector 60 TimeSyncUEUE.TsnSwitchDomain2.clock timeChanged:vector ETV
attr interpolationmode linear
attr recordingmode vector
attr title "Clock time"
vector 61 TimeSyncUEUE.TsnSwitchDataNetwork.clock timeChanged:vector ETV
attr interpolationmode linear
attr recordingmode vector
attr title "Clock time"
vector 62 TimeSyncUEUE.FGS.dstt[0].clock timeChanged:vector ETV
attr interpolationmode linear
attr recordingmode vector
attr title "Clock time"
vector 63 TimeSyncUEUE.TsnSwitchDomain2.ethernet.macHeaderInserter incomingPacketLengths:vector ETV
attr interpolationmode none
attr recordingmode vector
attr source "packetLength(merge(packetPushedIn, packetPulledIn))"
attr title "incoming packet lengths"
attr unit b
vector 64 TimeSyncUEUE.TsnSwitchDomain2.ethernet.macHeaderInserter outgoingPacketLengths:vector ETV
attr interpolationmode none
attr recordingmode vector
attr source "packetLength(merge(packetPushedOut, packetPulledOut))"
attr title "outgoing packet lengths"
attr unit b
vector 65 TimeSyncUEUE.TsnSwitchDomain2.ethernet.paddingInserter incomingPacketLengths:vector ETV
attr interpolationmode none
attr recordingmode vector
attr source "packetLength(merge(packetPushedIn, packetPulledIn))"
attr title "incoming packet lengths"
attr unit b
vector 66 TimeSyncUEUE.TsnSwitchDomain2.ethernet.paddingInserter outgoingPacketLengths:vector ETV
attr interpolationmode none
attr recordingmode vector
attr source "packetLength(merge(packetPushedOut, packetPulledOut))"
attr title "outgoing packet lengths"
attr unit b
vector 67 TimeSyncUEUE.TsnSwitchDomain2.ethernet.fcsInserter incomingPacketLengths:vector ETV
attr interpolationmode none
attr recordingmode vector
attr source "packetLength(merge(packetPushedIn, packetPulledIn))"
attr title "incoming packet lengths"
attr unit b
vector 68 TimeSyncUEUE.TsnSwitchDomain2.ethernet.fcsInserter outgoingPacketLengths:vector ETV
attr interpolationmode none
attr recordingmode vector
attr source "packetLength(merge(packetPushedOut, packetPulledOut))"
attr title "outgoing packet lengths"
attr unit b
vector 69 TimeSyncUEUE.TsnSwitchDomain2.eth[0].macLayer.queue incomingPacketLengths:vector ETV
attr interpolationmode none
attr recordingmode vector
attr source packetLength(packetPushStarted)
attr title "incoming packet lengths"
attr unit b
vector 70 TimeSyncUEUE.TsnSwitchDataNetwork.ethernet.macHeaderInserter incomingPacketLengths:vector ETV
attr interpolationmode none
attr recordingmode vector
attr source "packetLength(merge(packetPushedIn, packetPulledIn))"
attr title "incoming packet lengths"
attr unit b
vector 71 TimeSyncUEUE.TsnSwitchDataNetwork.ethernet.macHeaderInserter outgoingPacketLengths:vector ETV
attr interpolationmode none
attr recordingmode vector
attr source "packetLength(merge(packetPushedOut, packetPulledOut))"
attr title "outgoing packet lengths"
attr unit b
vector 72 TimeSyncUEUE.TsnSwitchDataNetwork.ethernet.paddingInserter incomingPacketLengths:vector ETV
attr interpolationmode none
attr recordingmode vector
attr source "packetLength(merge(packetPushedIn, packetPulledIn))"
attr title "incoming packet lengths"
attr unit b
vector 73 TimeSyncUEUE.TsnSwitchDataNetwork.ethernet.paddingInserter outgoingPacketLengths:vector ETV
attr interpolationmode none
attr recordingmode vector
attr source "packetLength(merge(packetPushedOut, packetPulledOut))"
attr title "outgoing packet lengths"
attr unit b
vector 74 TimeSyncUEUE.TsnSwitchDataNetwork.ethernet.fcsInserter incomingPacketLengths:vector ETV
attr interpolationmode none
attr recordingmode vector
attr source "packetLength(merge(packetPushedIn, packetPulledIn))"
attr title "incoming packet lengths"
attr unit b
vector 75 TimeSyncUEUE.TsnSwitchDataNetwork.ethernet.fcsInserter outgoingPacketLengths:vector ETV
attr interpolationmode none
attr recordingmode vector
attr source "packetLength(merge(packetPushedOut, packetPulledOut))"
attr title "outgoing packet lengths"
attr unit b
vector 76 TimeSyncUEUE.TsnSwitchDataNetwork.eth[0].macLayer.queue incomingPacketLengths:vector ETV
attr interpolationmode none
attr recordingmode vector
attr source packetLength(packetPushStarted)
attr title "incoming packet lengths"
attr unit b
vector 77 TimeSyncUEUE.FGS.dstt[0].bridging.streamCoder.encoder incomingPacketLengths:vector ETV
attr interpolationmode none
attr recordingmode vector
attr source "packetLength(merge(packetPushedIn, packetPulledIn))"
attr title "incoming packet lengths"
attr unit b
vector 78 TimeSyncUEUE.FGS.dstt[0].bridging.streamCoder.encoder outgoingPacketLengths:vector ETV
attr interpolationmode none
attr recordingmode vector
attr source "packetLength(merge(packetPushedOut, packetPulledOut))"
attr title "outgoing packet lengths"
attr unit b
vector 79 TimeSyncUEUE.TsnSwitchDomain2.eth[0].macLayer.queue queueingTime:vector ETV
attr interpolationmode none
attr recordingmode vector
attr source queueingTime(packetPulled)
attr title "queueing times"
attr unit s
vector 80 TimeSyncUEUE.TsnSwitchDomain2.eth[0].macLayer.queue outgoingPacketLengths:vector ETV
attr interpolationmode none
attr recordingmode vector
attr source packetLength(packetPulled)
attr title "outgoing packet lengths"
attr unit b
vector 81 TimeSyncUEUE.TsnSwitchDomain2.eth[0].macLayer.server incomingPacketLengths:vector ETV
attr interpolationmode none
attr recordingmode vector
attr source packetLength(packetPulled)
attr title "incoming packet lengths"
attr unit b
vector 82 TimeSyncUEUE.TsnSwitchDomain2.eth[0].macLayer.server outgoingPacketLengths:vector ETV
attr interpolationmode none
attr recordingmode vector
attr source packetLength(packetPushed)
attr title "outgoing packet lengths"
attr unit b
vector 83 TimeSyncUEUE.TsnSwitchDomain2.eth[0].macLayer.outboundEmitter incomingPacketLengths:vector ETV
attr interpolationmode none
attr recordingmode vector
attr source "packetLength(merge(packetPushedIn, packetPulledIn))"
attr title "incoming packet lengths"
attr unit b
vector 84 TimeSyncUEUE.TsnSwitchDomain2.eth[0].macLayer.outboundEmitter outgoingPacketLengths:vector ETV
attr interpolationmode none
attr recordingmode vector
attr source "packetLength(merge(packetPushedOut, packetPulledOut))"
attr title "outgoing packet lengths"
attr unit b
vector 85 TimeSyncUEUE.TsnSwitchDomain2.eth[0].phyLayer.phyHeaderInserter incomingPacketLengths:vector ETV
attr interpolationmode none
attr recordingmode vector
attr source "packetLength(merge(packetPushedIn, packetPulledIn))"
attr title "incoming packet lengths"
attr unit b
vector 86 TimeSyncUEUE.TsnSwitchDomain2.eth[0].phyLayer.phyHeaderInserter outgoingPacketLengths:vector ETV
attr interpolationmode none
attr recordingmode vector
attr source "packetLength(merge(packetPushedOut, packetPulledOut))"
attr title "outgoing packet lengths"
attr unit b
vector 87 TimeSyncUEUE.TsnSwitchDomain2.eth[0].phyLayer.outboundEmitter incomingPacketLengths:vector ETV
attr interpolationmode none
attr recordingmode vector
attr source "packetLength(merge(packetPushedIn, packetPulledIn))"
attr title "incoming packet lengths"
attr unit b
vector 88 TimeSyncUEUE.TsnSwitchDomain2.eth[0].phyLayer.outboundEmitter outgoingPacketLengths:vector ETV
attr interpolationmode none
attr recordingmode vector
attr source "packetLength(merge(packetPushedOut, packetPulledOut))"
attr title "outgoing packet lengths"
attr unit b
vector 89 TimeSyncUEUE.TsnSwitchDataNetwork.eth[0].macLayer.queue queueingTime:vector ETV
attr interpolationmode none
attr recordingmode vector
attr source queueingTime(packetPulled)
attr title "queueing times"
attr unit s
vector 90 TimeSyncUEUE.TsnSwitchDataNetwork.eth[0].macLayer.queue outgoingPacketLengths:vector ETV
attr interpolationmode none
attr recordingmode vector
attr source packetLength(packetPulled)
attr title "outgoing packet lengths"
attr unit b
vector 91 TimeSyncUEUE.TsnSwitchDataNetwork.eth[0].macLayer.server incomingPacketLengths:vector ETV
attr interpolationmode none
attr recordingmode vector
attr source packetLength(packetPulled)
attr title "incoming packet lengths"
attr unit b
vector 92 TimeSyncUEUE.TsnSwitchDataNetwork.eth[0].macLayer.server outgoingPacketLengths:vector ETV
attr interpolationmode none
attr recordingmode vector
attr source packetLength(packetPushed)
attr title "outgoing packet lengths"
attr unit b
vector 93 TimeSyncUEUE.TsnSwitchDataNetwork.eth[0].macLayer.outboundEmitter incomingPacketLengths:vector ETV
attr interpolationmode none
attr recordingmode vector
attr source "packetLength(merge(packetPushedIn, packetPulledIn))"
attr title "incoming packet lengths"
attr unit b
vector 94 TimeSyncUEUE.TsnSwitchDataNetwork.eth[0].macLayer.outboundEmitter outgoingPacketLengths:vector ETV
attr interpolationmode none
attr recordingmode vector
attr source "packetLength(merge(packetPushedOut, packetPulledOut))"
attr title "outgoing packet lengths"
attr unit b
vector 95 TimeSyncUEUE.TsnSwitchDataNetwork.eth[0].phyLayer.phyHeaderInserter incomingPacketLengths:vector ETV
attr interpolationmode none
attr recordingmode vector
attr source "packetLength(merge(packetPushedIn, packetPulledIn))"
attr title "incoming packet lengths"
attr unit b
vector 96 TimeSyncUEUE.TsnSwitchDataNetwork.eth[0].phyLayer.phyHeaderInserter outgoingPacketLengths:vector ETV
attr interpolationmode none
attr recordingmode vector
attr source "packetLength(merge(packetPushedOut, packetPulledOut))"
attr title "outgoing packet lengths"
attr unit b
vector 97 TimeSyncUEUE.TsnSwitchDataNetwork.eth[0].phyLayer.outboundEmitter incomingPacketLengths:vector ETV
attr interpolationmode none
attr recordingmode vector
attr source "packetLength(merge(packetPushedIn, packetPulledIn))"
attr title "incoming packet lengths"
attr unit b
vector 98 TimeSyncUEUE.TsnSwitchDataNetwork.eth[0].phyLayer.outboundEmitter outgoingPacketLengths:vector ETV
attr interpolationmode none
attr recordingmode vector
attr source "packetLength(merge(packetPushedOut, packetPulledOut))"
attr title "outgoing packet lengths"
attr unit b
vector 99 TimeSyncUEUE.FGS.dstt[0].ethernet.macHeaderInserter incomingPacketLengths:vector ETV
attr interpolationmode none
attr recordingmode vector
attr source "packetLength(merge(packetPushedIn, packetPulledIn))"
attr title "incoming packet lengths"
attr unit b
vector 100 TimeSyncUEUE.FGS.dstt[0].ethernet.macHeaderInserter outgoingPacketLengths:vector ETV
attr interpolationmode none
attr recordingmode vector
attr source "packetLength(merge(packetPushedOut, packetPulledOut))"
attr title "outgoing packet lengths"
attr unit b
vector 101 TimeSyncUEUE.FGS.dstt[0].ethernet.paddingInserter incomingPacketLengths:vector ETV
attr interpolationmode none
attr recordingmode vector
attr source "packetLength(merge(packetPushedIn, packetPulledIn))"
attr title "incoming packet lengths"
attr unit b
vector 102 TimeSyncUEUE.FGS.dstt[0].ethernet.paddingInserter outgoingPacketLengths:vector ETV
attr interpolationmode none
attr recordingmode vector
attr source "packetLength(merge(packetPushedOut, packetPulledOut))"
attr title "outgoing packet lengths"
attr unit b
vector 103 TimeSyncUEUE.FGS.dstt[0].ethernet.fcsInserter incomingPacketLengths:vector ETV
attr interpolationmode none
attr recordingmode vector
attr source "packetLength(merge(packetPushedIn, packetPulledIn))"
attr title "incoming packet lengths"
attr unit b
vector 104 TimeSyncUEUE.FGS.dstt[0].ethernet.fcsInserter outgoingPacketLengths:vector ETV
attr interpolationmode none
attr recordingmode vector
attr source "packetLength(merge(packetPushedOut, packetPulledOut))"
attr title "outgoing packet lengths"
attr unit b
vector 105 TimeSyncUEUE.FGS.dstt[0].eth[0].macLayer.queue incomingPacketLengths:vector ETV
attr interpolationmode none
attr recordingmode vector
attr source packetLength(packetPushStarted)
attr title "incoming packet lengths"
attr unit b
vector 106 TimeSyncUEUE.FGS.dstt[0].eth[0].macLayer.queue queueingTime:vector ETV
attr interpolationmode none
attr recordingmode vector
attr source queueingTime(packetPulled)
attr title "queueing times"
attr unit s
vector 107 TimeSyncUEUE.FGS.dstt[0].eth[0].macLayer.queue outgoingPacketLengths:vector ETV
attr interpolationmode none
attr recordingmode vector
attr source packetLength(packetPulled)
attr title "outgoing packet lengths"
attr unit b
vector 108 TimeSyncUEUE.FGS.dstt[0].eth[0].macLayer.server incomingPacketLengths:vector ETV
attr interpolationmode none
attr recordingmode vector
attr source packetLength(packetPulled)
attr title "incoming packet lengths"
attr unit b
vector 109 TimeSyncUEUE.FGS.dstt[0].eth[0].macLayer.server outgoingPacketLengths:vector ETV
attr interpolationmode none
attr recordingmode vector
attr source packetLength(packetPushed)
attr title "outgoing packet lengths"
attr unit b
vector 110 TimeSyncUEUE.FGS.dstt[0].eth[0].macLayer.outboundEmitter incomingPacketLengths:vector ETV
attr interpolationmode none
attr recordingmode vector
attr source "packetLength(merge(packetPushedIn, packetPulledIn))"
attr title "incoming packet lengths"
attr unit b
vector 111 TimeSyncUEUE.FGS.dstt[0].eth[0].macLayer.outboundEmitter outgoingPacketLengths:vector ETV
attr interpolationmode none
attr recordingmode vector
attr source "packetLength(merge(packetPushedOut, packetPulledOut))"
attr title "outgoing packet lengths"
attr unit b
vector 112 TimeSyncUEUE.FGS.dstt[0].eth[0].phyLayer.phyHeaderInserter incomingPacketLengths:vector ETV
attr interpolationmode none
attr recordingmode vector
attr source "packetLength(merge(packetPushedIn, packetPulledIn))"
attr title "incoming packet lengths"
attr unit b
vector 113 TimeSyncUEUE.FGS.dstt[0].eth[0].phyLayer.phyHeaderInserter outgoingPacketLengths:vector ETV
attr interpolationmode none
attr recordingmode vector
attr source "packetLength(merge(packetPushedOut, packetPulledOut))"
attr title "outgoing packet lengths"
attr unit b
vector 114 TimeSyncUEUE.FGS.dstt[0].eth[0].phyLayer.outboundEmitter incomingPacketLengths:vector ETV
attr interpolationmode none
attr recordingmode vector
attr source "packetLength(merge(packetPushedIn, packetPulledIn))"
attr title "incoming packet lengths"
attr unit b
vector 115 TimeSyncUEUE.FGS.dstt[0].eth[0].phyLayer.outboundEmitter outgoingPacketLengths:vector ETV
attr interpolationmode none
attr recordingmode vector
attr source "packetLength(merge(packetPushedOut, packetPulledOut))"
attr title "outgoing packet lengths"
attr unit b
vector 116 TimeSyncUEUE.TsnSwitchDomain2.eth[0].phyLayer.transmitter transmissionTime:vector ETV
attr interpolationmode none
attr recordingmode vector
attr source packetDuration(transmissionEnded)
attr title "transmission time"
attr unit s
vector 117 TimeSyncUEUE.TsnSwitchDataNetwork.eth[0].phyLayer.transmitter transmissionTime:vector ETV
attr interpolationmode none
attr recordingmode vector
attr source packetDuration(transmissionEnded)
attr title "transmission time"
attr unit s
vector 118 TimeSyncUEUE.FGS.dstt[0].eth[0].phyLayer.transmitter transmissionTime:vector ETV
attr interpolationmode none
attr recordingmode vector
attr source packetDuration(transmissionEnded)
attr title "transmission time"
attr unit s
vector 119 TimeSyncUEUE.FGS.dstt[1].eth[0].phyLayer.receiver receptionTime:vector ETV
attr interpolationmode none
attr recordingmode vector
attr source packetDuration(receptionEnded)
attr title "reception time"
attr unit s
vector 120 TimeSyncUEUE.FGS.dstt[1].eth[0].phyLayer.inboundEmitter incomingPacketLengths:vector ETV
attr interpolationmode none
attr recordingmode vector
attr source "packetLength(merge(packetPushedIn, packetPulledIn))"
attr title "incoming packet lengths"
attr unit b
vector 121 TimeSyncUEUE.FGS.dstt[1].eth[0].phyLayer.inboundEmitter outgoingPacketLengths:vector ETV
attr interpolationmode none
attr recordingmode vector
attr source "packetLength(merge(packetPushedOut, packetPulledOut))"
attr title "outgoing packet lengths"
attr unit b
vector 122 TimeSyncUEUE.FGS.dstt[1].eth[0].phyLayer.phyHeaderChecker incomingPacketLengths:vector ETV
attr interpolationmode none
attr recordingmode vector
attr source "packetLength(merge(packetPushedIn, packetPulledIn))"
attr title "incoming packet lengths"
attr unit b
vector 123 TimeSyncUEUE.FGS.dstt[1].eth[0].phyLayer.phyHeaderChecker outgoingPacketLengths:vector ETV
attr interpolationmode none
attr recordingmode vector
attr source "packetLength(merge(packetPushedOut, packetPulledOut))"
attr title "outgoing packet lengths"
attr unit b
vector 124 TimeSyncUEUE.FGS.dstt[1].eth[0].macLayer.inboundEmitter incomingPacketLengths:vector ETV
attr interpolationmode none
attr recordingmode vector
attr source "packetLength(merge(packetPushedIn, packetPulledIn))"
attr title "incoming packet lengths"
attr unit b
vector 125 TimeSyncUEUE.FGS.dstt[1].eth[0].macLayer.inboundEmitter outgoingPacketLengths:vector ETV
attr interpolationmode none
attr recordingmode vector
attr source "packetLength(merge(packetPushedOut, packetPulledOut))"
attr title "outgoing packet lengths"
attr unit b
vector 126 TimeSyncUEUE.FGS.dstt[1].eth[0].macLayer.fcsChecker incomingPacketLengths:vector ETV
attr interpolationmode none
attr recordingmode vector
attr source "packetLength(merge(packetPushedIn, packetPulledIn))"
attr title "incoming packet lengths"
attr unit b
vector 127 TimeSyncUEUE.FGS.dstt[1].eth[0].macLayer.fcsChecker outgoingPacketLengths:vector ETV
attr interpolationmode none
attr recordingmode vector
attr source "packetLength(merge(packetPushedOut, packetPulledOut))"
attr title "outgoing packet lengths"
attr unit b
vector 128 TimeSyncUEUE.FGS.dstt[1].ethernet.fcsChecker incomingPacketLengths:vector ETV
attr interpolationmode none
attr recordingmode vector
attr source "packetLength(merge(packetPushedIn, packetPulledIn))"
attr title "incoming packet lengths"
attr unit b
vector 129 TimeSyncUEUE.FGS.dstt[1].ethernet.fcsChecker outgoingPacketLengths:vector ETV
attr interpolationmode none
attr recordingmode vector
attr source "packetLength(merge(packetPushedOut, packetPulledOut))"
attr title "outgoing packet lengths"
attr unit b
vector 130 TimeSyncUEUE.FGS.dstt[1].ethernet.macHeaderChecker incomingPacketLengths:vector ETV
attr interpolationmode none
attr recordingmode vector
attr source "packetLength(merge(packetPushedIn, packetPulledIn))"
attr title "incoming packet lengths"
attr unit b
vector 131 TimeSyncUEUE.FGS.dstt[1].ethernet.macHeaderChecker outgoingPacketLengths:vector ETV
attr interpolationmode none
attr recordingmode vector
attr source "packetLength(merge(packetPushedOut, packetPulledOut))"
attr title "outgoing packet lengths"
attr unit b
vector 132 TimeSyncUEUE.FGS.dstt[1].bridging.interfaceRelay.learner incomingPacketLengths:vector ETV
attr interpolationmode none
attr recordingmode vector
attr source "packetLength(merge(packetPushedIn, packetPulledIn))"
attr title "incoming packet lengths"
attr unit b
vector 133 TimeSyncUEUE.FGS.dstt[1].bridging.interfaceRelay.learner outgoingPacketLengths:vector ETV
attr interpolationmode none
attr recordingmode vector
attr source "packetLength(merge(packetPushedOut, packetPulledOut))"
attr title "outgoing packet lengths"
attr unit b
vector 134 TimeSyncUEUE.FGS.dstt[1].bridging.streamCoder.decoder incomingPacketLengths:vector ETV
attr interpolationmode none
attr recordingmode vector
attr source "packetLength(merge(packetPushedIn, packetPulledIn))"
attr title "incoming packet lengths"
attr unit b
vector 135 TimeSyncUEUE.FGS.dstt[1].bridging.streamCoder.decoder outgoingPacketLengths:vector ETV
attr interpolationmode none
attr recordingmode vector
attr source "packetLength(merge(packetPushedOut, packetPulledOut))"
attr title "outgoing packet lengths"
attr unit b
vector 136 TimeSyncUEUE.FGS.dstt[1].gptp.classifier packetLengths:vector ETV
attr interpolationmode none
attr recordingmode vector
attr source packetLength(packetPushed)
attr title "packet lengths"
attr unit b
vector 137 TimeSyncUEUE.FGS.nwtt[0].eth[0].phyLayer.receiver receptionTime:vector ETV
attr interpolationmode none
attr recordingmode vector
attr source packetDuration(receptionEnded)
attr title "reception time"
attr unit s
vector 138 TimeSyncUEUE.FGS.nwtt[0].eth[0].phyLayer.inboundEmitter incomingPacketLengths:vector ETV
attr interpolationmode none
attr recordingmode vector
attr source "packetLength(merge(packetPushedIn, packetPulledIn))"
attr title "incoming packet lengths"
attr unit b
vector 139 TimeSyncUEUE.FGS.nwtt[0].eth[0].phyLayer.inboundEmitter outgoingPacketLengths:vector ETV
attr interpolationmode none
attr recordingmode vector
attr source "packetLength(merge(packetPushedOut, packetPulledOut))"
attr title "outgoing packet lengths"
attr unit b
vector 140 TimeSyncUEUE.FGS.nwtt[0].eth[0].phyLayer.phyHeaderChecker incomingPacketLengths:vector ETV
attr interpolationmode none
attr recordingmode vector
attr source "packetLength(merge(packetPushedIn, packetPulledIn))"
attr title "incoming packet lengths"
attr unit b
vector 141 TimeSyncUEUE.FGS.nwtt[0].eth[0].phyLayer.phyHeaderChecker outgoingPacketLengths:vector ETV
attr interpolationmode none
attr recordingmode vector
attr source "packetLength(merge(packetPushedOut, packetPulledOut))"
attr title "outgoing packet lengths"
attr unit b
vector 142 TimeSyncUEUE.FGS.nwtt[0].eth[0].macLayer.inboundEmitter incomingPacketLengths:vector ETV
attr interpolationmode none
attr recordingmode vector
attr source "packetLength(merge(packetPushedIn, packetPulledIn))"
attr title "incoming packet lengths"
attr unit b
vector 143 TimeSyncUEUE.FGS.nwtt[0].eth[0].macLayer.inboundEmitter outgoingPacketLengths:vector ETV
attr interpolationmode none
attr recordingmode vector
attr source "packetLength(merge(packetPushedOut, packetPulledOut))"
attr title "outgoing packet lengths"
attr unit b
vector 144 TimeSyncUEUE.FGS.nwtt[0].eth[0].macLayer.fcsChecker incomingPacketLengths:vector ETV
attr interpolationmode none
attr recordingmode vector
attr source "packetLength(merge(packetPushedIn, packetPulledIn))"
attr title "incoming packet lengths"
attr unit b
vector 145 TimeSyncUEUE.FGS.nwtt[0].eth[0].macLayer.fcsChecker outgoingPacketLengths:vector ETV
attr interpolationmode none
attr recordingmode vector
attr source "packetLength(merge(packetPushedOut, packetPulledOut))"
attr title "outgoing packet lengths"
attr unit b
vector 146 TimeSyncUEUE.FGS.nwtt[0].ethernet.fcsChecker incomingPacketLengths:vector ETV
attr interpolationmode none
attr recordingmode vector
attr source "packetLength(merge(packetPushedIn, packetPulledIn))"
attr title "incoming packet lengths"
attr unit b
vector 147 TimeSyncUEUE.FGS.nwtt[0].ethernet.fcsChecker outgoingPacketLengths:vector ETV
attr interpolationmode none
attr recordingmode vector
attr source "packetLength(merge(packetPushedOut, packetPulledOut))"
attr title "outgoing packet lengths"
attr unit b
vector 148 TimeSyncUEUE.FGS.nwtt[0].ethernet.macHeaderChecker incomingPacketLengths:vector ETV
attr interpolationmode none
attr recordingmode vector
attr source "packetLength(merge(packetPushedIn, packetPulledIn))"
attr title "incoming packet lengths"
attr unit b
vector 149 TimeSyncUEUE.FGS.nwtt[0].ethernet.macHeaderChecker outgoingPacketLengths:vector ETV
attr interpolationmode none
attr recordingmode vector
attr source "packetLength(merge(packetPushedOut, packetPulledOut))"
attr title "outgoing packet lengths"
attr unit b
vector 150 TimeSyncUEUE.FGS.nwtt[0].bridging.interfaceRelay.learner incomingPacketLengths:vector ETV
attr interpolationmode none
attr recordingmode vector
attr source "packetLength(merge(packetPushedIn, packetPulledIn))"
attr title "incoming packet lengths"
attr unit b
vector 151 TimeSyncUEUE.FGS.nwtt[0].bridging.interfaceRelay.learner outgoingPacketLengths:vector ETV
attr interpolationmode none
attr recordingmode vector
attr source "packetLength(merge(packetPushedOut, packetPulledOut))"
attr title "outgoing packet lengths"
attr unit b
vector 152 TimeSyncUEUE.FGS.nwtt[0].bridging.streamCoder.decoder incomingPacketLengths:vector ETV
attr interpolationmode none
attr recordingmode vector
attr source "packetLength(merge(packetPushedIn, packetPulledIn))"
attr title "incoming packet lengths"
attr unit b
vector 153 TimeSyncUEUE.FGS.nwtt[0].bridging.streamCoder.decoder outgoingPacketLengths:vector ETV
attr interpolationmode none
attr recordingmode vector
attr source "packetLength(merge(packetPushedOut, packetPulledOut))"
attr title "outgoing packet lengths"
attr unit b
vector 154 TimeSyncUEUE.FGS.nwtt[0].gptp.classifier packetLengths:vector ETV
attr interpolationmode none
attr recordingmode vector
attr source packetLength(packetPushed)
attr title "packet lengths"
attr unit b
vector 155 TimeSyncUEUE.TsnSwitchDomain1.eth[0].phyLayer.receiver receptionTime:vector ETV
attr interpolationmode none
attr recordingmode vector
attr source packetDuration(receptionEnded)
attr title "reception time"
attr unit s
vector 156 TimeSyncUEUE.TsnSwitchDomain1.eth[0].phyLayer.inboundEmitter incomingPacketLengths:vector ETV
attr interpolationmode none
attr recordingmode vector
attr source "packetLength(merge(packetPushedIn, packetPulledIn))"
attr title "incoming packet lengths"
attr unit b
vector 157 TimeSyncUEUE.TsnSwitchDomain1.eth[0].phyLayer.inboundEmitter outgoingPacketLengths:vector ETV
attr interpolationmode none
attr recordingmode vector
attr source "packetLength(merge(packetPushedOut, packetPulledOut))"
attr title "outgoing packet lengths"
attr unit b
vector 158 TimeSyncUEUE.TsnSwitchDomain1.eth[0].phyLayer.phyHeaderChecker incomingPacketLengths:vector ETV
attr interpolationmode none
attr recordingmode vector
attr source "packetLength(merge(packetPushedIn, packetPulledIn))"
attr title "incoming packet lengths"
attr unit b
vector 159 TimeSyncUEUE.TsnSwitchDomain1.eth[0].phyLayer.phyHeaderChecker outgoingPacketLengths:vector ETV
attr interpolationmode none
attr recordingmode vector
attr source "packetLength(merge(packetPushedOut, packetPulledOut))"
attr title "outgoing packet lengths"
attr unit b
vector 160 TimeSyncUEUE.TsnSwitchDomain1.eth[0].macLayer.inboundEmitter incomingPacketLengths:vector ETV
attr interpolationmode none
attr recordingmode vector
attr source "packetLength(merge(packetPushedIn, packetPulledIn))"
attr title "incoming packet lengths"
attr unit b
vector 161 TimeSyncUEUE.TsnSwitchDomain1.eth[0].macLayer.inboundEmitter outgoingPacketLengths:vector ETV
attr interpolationmode none
attr recordingmode vector
attr source "packetLength(merge(packetPushedOut, packetPulledOut))"
attr title "outgoing packet lengths"
attr unit b
vector 162 TimeSyncUEUE.TsnSwitchDomain1.eth[0].macLayer.fcsChecker incomingPacketLengths:vector ETV
attr interpolationmode none
attr recordingmode vector
attr source "packetLength(merge(packetPushedIn, packetPulledIn))"
attr title "incoming packet lengths"
attr unit b
vector 163 TimeSyncUEUE.TsnSwitchDomain1.eth[0].macLayer.fcsChecker outgoingPacketLengths:vector ETV
attr interpolationmode none
attr recordingmode vector
attr source "packetLength(merge(packetPushedOut, packetPulledOut))"
attr title "outgoing packet lengths"
attr unit b
vector 164 TimeSyncUEUE.TsnSwitchDomain1.ethernet.fcsChecker incomingPacketLengths:vector ETV
attr interpolationmode none
attr recordingmode vector
attr source "packetLength(merge(packetPushedIn, packetPulledIn))"
attr title "incoming packet lengths"
attr unit b
vector 165 TimeSyncUEUE.TsnSwitchDomain1.ethernet.fcsChecker outgoingPacketLengths:vector ETV
attr interpolationmode none
attr recordingmode vector
attr source "packetLength(merge(packetPushedOut, packetPulledOut))"
attr title "outgoing packet lengths"
attr unit b
vector 166 TimeSyncUEUE.TsnSwitchDomain1.ethernet.macHeaderChecker incomingPacketLengths:vector ETV
attr interpolationmode none
attr recordingmode vector
attr source "packetLength(merge(packetPushedIn, packetPulledIn))"
attr title "incoming packet lengths"
attr unit b
vector 167 TimeSyncUEUE.TsnSwitchDomain1.ethernet.macHeaderChecker outgoingPacketLengths:vector ETV
attr interpolationmode none
attr recordingmode vector
attr source "packetLength(merge(packetPushedOut, packetPulledOut))"
attr title "outgoing packet lengths"
attr unit b
vector 168 TimeSyncUEUE.FGS.dstt[1].bridging.streamCoder.encoder incomingPacketLengths:vector ETV
attr interpolationmode none
attr recordingmode vector
attr source "packetLength(merge(packetPushedIn, packetPulledIn))"
attr title "incoming packet lengths"
attr unit b
vector 169 TimeSyncUEUE.FGS.dstt[1].bridging.streamCoder.encoder outgoingPacketLengths:vector ETV
attr interpolationmode none
attr recordingmode vector
attr source "packetLength(merge(packetPushedOut, packetPulledOut))"
attr title "outgoing packet lengths"
attr unit b
vector 170 TimeSyncUEUE.FGS.nwtt[0].bridging.streamCoder.encoder incomingPacketLengths:vector ETV
attr interpolationmode none
attr recordingmode vector
attr source "packetLength(merge(packetPushedIn, packetPulledIn))"
attr title "incoming packet lengths"
attr unit b
vector 171 TimeSyncUEUE.FGS.nwtt[0].bridging.streamCoder.encoder outgoingPacketLengths:vector ETV
attr interpolationmode none
attr recordingmode vector
attr source "packetLength(merge(packetPushedOut, packetPulledOut))"
attr title "outgoing packet lengths"
attr unit b
vector 172 TimeSyncUEUE.TsnSwitchDomain1.ethernet.macHeaderInserter incomingPacketLengths:vector ETV
attr interpolationmode none
attr recordingmode vector
attr source "packetLength(merge(packetPushedIn, packetPulledIn))"
attr title "incoming packet lengths"
attr unit b
vector 173 TimeSyncUEUE.TsnSwitchDomain1.ethernet.macHeaderInserter outgoingPacketLengths:vector ETV
attr interpolationmode none
attr recordingmode vector
attr source "packetLength(merge(packetPushedOut, packetPulledOut))"
attr title "outgoing packet lengths"
attr unit b
vector 174 TimeSyncUEUE.TsnSwitchDomain1.ethernet.paddingInserter incomingPacketLengths:vector ETV
attr interpolationmode none
attr recordingmode vector
attr source "packetLength(merge(packetPushedIn, packetPulledIn))"
attr title "incoming packet lengths"
attr unit b
vector 175 TimeSyncUEUE.TsnSwitchDomain1.ethernet.paddingInserter outgoingPacketLengths:vector ETV
attr interpolationmode none
attr recordingmode vector
attr source "packetLength(merge(packetPushedOut, packetPulledOut))"
attr title "outgoing packet lengths"
attr unit b
vector 176 TimeSyncUEUE.TsnSwitchDomain1.ethernet.fcsInserter incomingPacketLengths:vector ETV
attr interpolationmode none
attr recordingmode vector
attr source "packetLength(merge(packetPushedIn, packetPulledIn))"
attr title "incoming packet lengths"
attr unit b
vector 177 TimeSyncUEUE.TsnSwitchDomain1.ethernet.fcsInserter outgoingPacketLengths:vector ETV
attr interpolationmode none
attr recordingmode vector
attr source "packetLength(merge(packetPushedOut, packetPulledOut))"
attr title "outgoing packet lengths"
attr unit b
vector 178 TimeSyncUEUE.TsnSwitchDomain1.eth[0].macLayer.queue incomingPacketLengths:vector ETV
attr interpolationmode none
attr recordingmode vector
attr source packetLength(packetPushStarted)
attr title "incoming packet lengths"
attr unit b
vector 179 TimeSyncUEUE.FGS.dstt[1].ethernet.macHeaderInserter incomingPacketLengths:vector ETV
attr interpolationmode none
attr recordingmode vector
attr source "packetLength(merge(packetPushedIn, packetPulledIn))"
attr title "incoming packet lengths"
attr unit b
vector 180 TimeSyncUEUE.FGS.dstt[1].ethernet.macHeaderInserter outgoingPacketLengths:vector ETV
attr interpolationmode none
attr recordingmode vector
attr source "packetLength(merge(packetPushedOut, packetPulledOut))"
attr title "outgoing packet lengths"
attr unit b
vector 181 TimeSyncUEUE.FGS.dstt[1].ethernet.paddingInserter incomingPacketLengths:vector ETV
attr interpolationmode none
attr recordingmode vector
attr source "packetLength(merge(packetPushedIn, packetPulledIn))"
attr title "incoming packet lengths"
attr unit b
vector 182 TimeSyncUEUE.FGS.dstt[1].ethernet.paddingInserter outgoingPacketLengths:vector ETV
attr interpolationmode none
attr recordingmode vector
attr source "packetLength(merge(packetPushedOut, packetPulledOut))"
attr title "outgoing packet lengths"
attr unit b
vector 183 TimeSyncUEUE.FGS.dstt[1].ethernet.fcsInserter incomingPacketLengths:vector ETV
attr interpolationmode none
attr recordingmode vector
attr source "packetLength(merge(packetPushedIn, packetPulledIn))"
attr title "incoming packet lengths"
attr unit b
vector 184 TimeSyncUEUE.FGS.dstt[1].ethernet.fcsInserter outgoingPacketLengths:vector ETV
attr interpolationmode none
attr recordingmode vector
attr source "packetLength(merge(packetPushedOut, packetPulledOut))"
attr title "outgoing packet lengths"
attr unit b
vector 185 TimeSyncUEUE.FGS.dstt[1].eth[0].macLayer.queue incomingPacketLengths:vector ETV
attr interpolationmode none
attr recordingmode vector
attr source packetLength(packetPushStarted)
attr title "incoming packet lengths"
attr unit b
vector 186 TimeSyncUEUE.FGS.nwtt[0].ethernet.macHeaderInserter incomingPacketLengths:vector ETV
attr interpolationmode none
attr recordingmode vector
attr source "packetLength(merge(packetPushedIn, packetPulledIn))"
attr title "incoming packet lengths"
attr unit b
vector 187 TimeSyncUEUE.FGS.nwtt[0].ethernet.macHeaderInserter outgoingPacketLengths:vector ETV
attr interpolationmode none
attr recordingmode vector
attr source "packetLength(merge(packetPushedOut, packetPulledOut))"
attr title "outgoing packet lengths"
attr unit b
vector 188 TimeSyncUEUE.FGS.nwtt[0].ethernet.paddingInserter incomingPacketLengths:vector ETV
attr interpolationmode none
attr recordingmode vector
attr source "packetLength(merge(packetPushedIn, packetPulledIn))"
attr title "incoming packet lengths"
attr unit b
vector 189 TimeSyncUEUE.FGS.nwtt[0].ethernet.paddingInserter outgoingPacketLengths:vector ETV
attr interpolationmode none
attr recordingmode vector
attr source "packetLength(merge(packetPushedOut, packetPulledOut))"
attr title "outgoing packet lengths"
attr unit b
vector 190 TimeSyncUEUE.FGS.nwtt[0].ethernet.fcsInserter incomingPacketLengths:vector ETV
attr interpolationmode none
attr recordingmode vector
attr source "packetLength(merge(packetPushedIn, packetPulledIn))"
attr title "incoming packet lengths"
attr unit b
vector 191 TimeSyncUEUE.FGS.nwtt[0].ethernet.fcsInserter outgoingPacketLengths:vector ETV
attr interpolationmode none
attr recordingmode vector
attr source "packetLength(merge(packetPushedOut, packetPulledOut))"
attr title "outgoing packet lengths"
attr unit b
vector 192 TimeSyncUEUE.FGS.nwtt[0].eth[0].macLayer.queue incomingPacketLengths:vector ETV
attr interpolationmode none
attr recordingmode vector
attr source packetLength(packetPushStarted)
attr title "incoming packet lengths"
attr unit b
vector 193 TimeSyncUEUE.TsnSwitchDomain1.eth[0].macLayer.queue queueingTime:vector ETV
attr interpolationmode none
attr recordingmode vector
attr source queueingTime(packetPulled)
attr title "queueing times"
attr unit s
vector 194 TimeSyncUEUE.TsnSwitchDomain1.eth[0].macLayer.queue outgoingPacketLengths:vector ETV
attr interpolationmode none
attr recordingmode vector
attr source packetLength(packetPulled)
attr title "outgoing packet lengths"
attr unit b
vector 195 TimeSyncUEUE.TsnSwitchDomain1.eth[0].macLayer.server incomingPacketLengths:vector ETV
attr interpolationmode none
attr recordingmode vector
attr source packetLength(packetPulled)
attr title "incoming packet lengths"
attr unit b
vector 196 TimeSyncUEUE.TsnSwitchDomain1.eth[0].macLayer.server outgoingPacketLengths:vector ETV
attr interpolationmode none
attr recordingmode vector
attr source packetLength(packetPushed)
attr title "outgoing packet lengths"
attr unit b
vector 197 TimeSyncUEUE.TsnSwitchDomain1.eth[0].macLayer.outboundEmitter incomingPacketLengths:vector ETV
attr interpolationmode none
attr recordingmode vector
attr source "packetLength(merge(packetPushedIn, packetPulledIn))"
attr title "incoming packet lengths"
attr unit b
vector 198 TimeSyncUEUE.TsnSwitchDomain1.eth[0].macLayer.outboundEmitter outgoingPacketLengths:vector ETV
attr interpolationmode none
attr recordingmode vector
attr source "packetLength(merge(packetPushedOut, packetPulledOut))"
attr title "outgoing packet lengths"
attr unit b
vector 199 TimeSyncUEUE.TsnSwitchDomain1.eth[0].phyLayer.phyHeaderInserter incomingPacketLengths:vector ETV
attr interpolationmode none
attr recordingmode vector
attr source "packetLength(merge(packetPushedIn, packetPulledIn))"
attr title "incoming packet lengths"
attr unit b
vector 200 TimeSyncUEUE.TsnSwitchDomain1.eth[0].phyLayer.phyHeaderInserter outgoingPacketLengths:vector ETV
attr interpolationmode none
attr recordingmode vector
attr source "packetLength(merge(packetPushedOut, packetPulledOut))"
attr title "outgoing packet lengths"
attr unit b
vector 201 TimeSyncUEUE.TsnSwitchDomain1.eth[0].phyLayer.outboundEmitter incomingPacketLengths:vector ETV
attr interpolationmode none
attr recordingmode vector
attr source "packetLength(merge(packetPushedIn, packetPulledIn))"
attr title "incoming packet lengths"
attr unit b
vector 202 TimeSyncUEUE.TsnSwitchDomain1.eth[0].phyLayer.outboundEmitter outgoingPacketLengths:vector ETV
attr interpolationmode none
attr recordingmode vector
attr source "packetLength(merge(packetPushedOut, packetPulledOut))"
attr title "outgoing packet lengths"
attr unit b
vector 203 TimeSyncUEUE.FGS.dstt[1].eth[0].macLayer.queue queueingTime:vector ETV
attr interpolationmode none
attr recordingmode vector
attr source queueingTime(packetPulled)
attr title "queueing times"
attr unit s
vector 204 TimeSyncUEUE.FGS.dstt[1].eth[0].macLayer.queue outgoingPacketLengths:vector ETV
attr interpolationmode none
attr recordingmode vector
attr source packetLength(packetPulled)
attr title "outgoing packet lengths"
attr unit b
vector 205 TimeSyncUEUE.FGS.dstt[1].eth[0].macLayer.server incomingPacketLengths:vector ETV
attr interpolationmode none
attr recordingmode vector
attr source packetLength(packetPulled)
attr title "incoming packet lengths"
attr unit b
vector 206 TimeSyncUEUE.FGS.dstt[1].eth[0].macLayer.server outgoingPacketLengths:vector ETV
attr interpolationmode none
attr recordingmode vector
attr source packetLength(packetPushed)
attr title "outgoing packet lengths"
attr unit b
vector 207 TimeSyncUEUE.FGS.dstt[1].eth[0].macLayer.outboundEmitter incomingPacketLengths:vector ETV
attr interpolationmode none
attr recordingmode vector
attr source "packetLength(merge(packetPushedIn, packetPulledIn))"
attr title "incoming packet lengths"
attr unit b
vector 208 TimeSyncUEUE.FGS.dstt[1].eth[0].macLayer.outboundEmitter outgoingPacketLengths:vector ETV
attr interpolationmode none
attr recordingmode vector
attr source "packetLength(merge(packetPushedOut, packetPulledOut))"
attr title "outgoing packet lengths"
attr unit b
vector 209 TimeSyncUEUE.FGS.dstt[1].eth[0].phyLayer.phyHeaderInserter incomingPacketLengths:vector ETV
attr interpolationmode none
attr recordingmode vector
attr source "packetLength(merge(packetPushedIn, packetPulledIn))"
attr title "incoming packet lengths"
attr unit b
vector 210 TimeSyncUEUE.FGS.dstt[1].eth[0].phyLayer.phyHeaderInserter outgoingPacketLengths:vector ETV
attr interpolationmode none
attr recordingmode vector
attr source "packetLength(merge(packetPushedOut, packetPulledOut))"
attr title "outgoing packet lengths"
attr unit b
vector 211 TimeSyncUEUE.FGS.dstt[1].eth[0].phyLayer.outboundEmitter incomingPacketLengths:vector ETV
attr interpolationmode none
attr recordingmode vector
attr source "packetLength(merge(packetPushedIn, packetPulledIn))"
attr title "incoming packet lengths"
attr unit b
vector 212 TimeSyncUEUE.FGS.dstt[1].eth[0].phyLayer.outboundEmitter outgoingPacketLengths:vector ETV
attr interpolationmode none
attr recordingmode vector
attr source "packetLength(merge(packetPushedOut, packetPulledOut))"
attr title "outgoing packet lengths"
attr unit b
vector 213 TimeSyncUEUE.FGS.nwtt[0].eth[0].macLayer.queue queueingTime:vector ETV
attr interpolationmode none
attr recordingmode vector
attr source queueingTime(packetPulled)
attr title "queueing times"
attr unit s
vector 214 TimeSyncUEUE.FGS.nwtt[0].eth[0].macLayer.queue outgoingPacketLengths:vector ETV
attr interpolationmode none
attr recordingmode vector
attr source packetLength(packetPulled)
attr title "outgoing packet lengths"
attr unit b
vector 215 TimeSyncUEUE.FGS.nwtt[0].eth[0].macLayer.server incomingPacketLengths:vector ETV
attr interpolationmode none
attr recordingmode vector
attr source packetLength(packetPulled)
attr title "incoming packet lengths"
attr unit b
vector 216 TimeSyncUEUE.FGS.nwtt[0].eth[0].macLayer.server outgoingPacketLengths:vector ETV
attr interpolationmode none
attr recordingmode vector
attr source packetLength(packetPushed)
attr title "outgoing packet lengths"
attr unit b
vector 217 TimeSyncUEUE.FGS.nwtt[0].eth[0].macLayer.outboundEmitter incomingPacketLengths:vector ETV
attr interpolationmode none
attr recordingmode vector
attr source "packetLength(merge(packetPushedIn, packetPulledIn))"
attr title "incoming packet lengths"
attr unit b
vector 218 TimeSyncUEUE.FGS.nwtt[0].eth[0].macLayer.outboundEmitter outgoingPacketLengths:vector ETV
attr interpolationmode none
attr recordingmode vector
attr source "packetLength(merge(packetPushedOut, packetPulledOut))"
attr title "outgoing packet lengths"
attr unit b
vector 219 TimeSyncUEUE.FGS.nwtt[0].eth[0].phyLayer.phyHeaderInserter incomingPacketLengths:vector ETV
attr interpolationmode none
attr recordingmode vector
attr source "packetLength(merge(packetPushedIn, packetPulledIn))"
attr title "incoming packet lengths"
attr unit b
vector 220 TimeSyncUEUE.FGS.nwtt[0].eth[0].phyLayer.phyHeaderInserter outgoingPacketLengths:vector ETV
attr interpolationmode none
attr recordingmode vector
attr source "packetLength(merge(packetPushedOut, packetPulledOut))"
attr title "outgoing packet lengths"
attr unit b
vector 221 TimeSyncUEUE.FGS.nwtt[0].eth[0].phyLayer.outboundEmitter incomingPacketLengths:vector ETV
attr interpolationmode none
attr recordingmode vector
attr source "packetLength(merge(packetPushedIn, packetPulledIn))"
attr title "incoming packet lengths"
attr unit b
vector 222 TimeSyncUEUE.FGS.nwtt[0].eth[0].phyLayer.outboundEmitter outgoingPacketLengths:vector ETV
attr interpolationmode none
attr recordingmode vector
attr source "packetLength(merge(packetPushedOut, packetPulledOut))"
attr title "outgoing packet lengths"
attr unit b
vector 223 TimeSyncUEUE.TsnSwitchDomain1.eth[0].phyLayer.transmitter transmissionTime:vector ETV
attr interpolationmode none
attr recordingmode vector
attr source packetDuration(transmissionEnded)
attr title "transmission time"
attr unit s
vector 224 TimeSyncUEUE.FGS.dstt[1].eth[0].phyLayer.transmitter transmissionTime:vector ETV
attr interpolationmode none
attr recordingmode vector
attr source packetDuration(transmissionEnded)
attr title "transmission time"
attr unit s
vector 225 TimeSyncUEUE.FGS.nwtt[0].eth[0].phyLayer.transmitter transmissionTime:vector ETV
attr interpolationmode none
attr recordingmode vector
attr source packetDuration(transmissionEnded)
attr title "transmission time"
attr unit s
vector 226 TimeSyncUEUE.FGS.dstt[0].eth[0].phyLayer.receiver receptionTime:vector ETV
attr interpolationmode none
attr recordingmode vector
attr source packetDuration(receptionEnded)
attr title "reception time"
attr unit s
vector 227 TimeSyncUEUE.FGS.dstt[0].eth[0].phyLayer.inboundEmitter incomingPacketLengths:vector ETV
attr interpolationmode none
attr recordingmode vector
attr source "packetLength(merge(packetPushedIn, packetPulledIn))"
attr title "incoming packet lengths"
attr unit b
vector 228 TimeSyncUEUE.FGS.dstt[0].eth[0].phyLayer.inboundEmitter outgoingPacketLengths:vector ETV
attr interpolationmode none
attr recordingmode vector
attr source "packetLength(merge(packetPushedOut, packetPulledOut))"
attr title "outgoing packet lengths"
attr unit b
vector 229 TimeSyncUEUE.FGS.dstt[0].eth[0].phyLayer.phyHeaderChecker incomingPacketLengths:vector ETV
attr interpolationmode none
attr recordingmode vector
attr source "packetLength(merge(packetPushedIn, packetPulledIn))"
attr title "incoming packet lengths"
attr unit b
vector 230 TimeSyncUEUE.FGS.dstt[0].eth[0].phyLayer.phyHeaderChecker outgoingPacketLengths:vector ETV
attr interpolationmode none
attr recordingmode vector
attr source "packetLength(merge(packetPushedOut, packetPulledOut))"
attr title "outgoing packet lengths"
attr unit b
vector 231 TimeSyncUEUE.FGS.dstt[0].eth[0].macLayer.inboundEmitter incomingPacketLengths:vector ETV
attr interpolationmode none
attr recordingmode vector
attr source "packetLength(merge(packetPushedIn, packetPulledIn))"
attr title "incoming packet lengths"
attr unit b
vector 232 TimeSyncUEUE.FGS.dstt[0].eth[0].macLayer.inboundEmitter outgoingPacketLengths:vector ETV
attr interpolationmode none
attr recordingmode vector
attr source "packetLength(merge(packetPushedOut, packetPulledOut))"
attr title "outgoing packet lengths"
attr unit b
vector 233 TimeSyncUEUE.FGS.dstt[0].eth[0].macLayer.fcsChecker incomingPacketLengths:vector ETV
attr interpolationmode none
attr recordingmode vector
attr source "packetLength(merge(packetPushedIn, packetPulledIn))"
attr title "incoming packet lengths"
attr unit b
vector 234 TimeSyncUEUE.FGS.dstt[0].eth[0].macLayer.fcsChecker outgoingPacketLengths:vector ETV
attr interpolationmode none
attr recordingmode vector
attr source "packetLength(merge(packetPushedOut, packetPulledOut))"
attr title "outgoing packet lengths"
attr unit b
vector 235 TimeSyncUEUE.FGS.dstt[0].ethernet.fcsChecker incomingPacketLengths:vector ETV
attr interpolationmode none
attr recordingmode vector
attr source "packetLength(merge(packetPushedIn, packetPulledIn))"
attr title "incoming packet lengths"
attr unit b
vector 236 TimeSyncUEUE.FGS.dstt[0].ethernet.fcsChecker outgoingPacketLengths:vector ETV
attr interpolationmode none
attr recordingmode vector
attr source "packetLength(merge(packetPushedOut, packetPulledOut))"
attr title "outgoing packet lengths"
attr unit b
vector 237 TimeSyncUEUE.FGS.dstt[0].ethernet.macHeaderChecker incomingPacketLengths:vector ETV
attr interpolationmode none
attr recordingmode vector
attr source "packetLength(merge(packetPushedIn, packetPulledIn))"
attr title "incoming packet lengths"
attr unit b
vector 238 TimeSyncUEUE.FGS.dstt[0].ethernet.macHeaderChecker outgoingPacketLengths:vector ETV
attr interpolationmode none
attr recordingmode vector
attr source "packetLength(merge(packetPushedOut, packetPulledOut))"
attr title "outgoing packet lengths"
attr unit b
vector 239 TimeSyncUEUE.FGS.dstt[0].bridging.interfaceRelay.learner incomingPacketLengths:vector ETV
attr interpolationmode none
attr recordingmode vector
attr source "packetLength(merge(packetPushedIn, packetPulledIn))"
attr title "incoming packet lengths"
attr unit b
vector 240 TimeSyncUEUE.FGS.dstt[0].bridging.interfaceRelay.learner outgoingPacketLengths:vector ETV
attr interpolationmode none
attr recordingmode vector
attr source "packetLength(merge(packetPushedOut, packetPulledOut))"
attr title "outgoing packet lengths"
attr unit b
vector 241 TimeSyncUEUE.FGS.dstt[0].bridging.streamCoder.decoder incomingPacketLengths:vector ETV
attr interpolationmode none
attr recordingmode vector
attr source "packetLength(merge(packetPushedIn, packetPulledIn))"
attr title "incoming packet lengths"
attr unit b
vector 242 TimeSyncUEUE.FGS.dstt[0].bridging.streamCoder.decoder outgoingPacketLengths:vector ETV
attr interpolationmode none
attr recordingmode vector
attr source "packetLength(merge(packetPushedOut, packetPulledOut))"
attr title "outgoing packet lengths"
attr unit b
vector 243 TimeSyncUEUE.FGS.dstt[0].gptp.classifier packetLengths:vector ETV
attr interpolationmode none
attr recordingmode vector
attr source packetLength(packetPushed)
attr title "packet lengths"
attr unit b
vector 244 TimeSyncUEUE.TsnSwitchDomain2.eth[0].phyLayer.receiver receptionTime:vector ETV
attr interpolationmode none
attr recordingmode vector
attr source packetDuration(receptionEnded)
attr title "reception time"
attr unit s
vector 245 TimeSyncUEUE.TsnSwitchDomain2.eth[0].phyLayer.inboundEmitter incomingPacketLengths:vector ETV
attr interpolationmode none
attr recordingmode vector
attr source "packetLength(merge(packetPushedIn, packetPulledIn))"
attr title "incoming packet lengths"
attr unit b
vector 246 TimeSyncUEUE.TsnSwitchDomain2.eth[0].phyLayer.inboundEmitter outgoingPacketLengths:vector ETV
attr interpolationmode none
attr recordingmode vector
attr source "packetLength(merge(packetPushedOut, packetPulledOut))"
attr title "outgoing packet lengths"
attr unit b
vector 247 TimeSyncUEUE.TsnSwitchDomain2.eth[0].phyLayer.phyHeaderChecker incomingPacketLengths:vector ETV
attr interpolationmode none
attr recordingmode vector
attr source "packetLength(merge(packetPushedIn, packetPulledIn))"
attr title "incoming packet lengths"
attr unit b
vector 248 TimeSyncUEUE.TsnSwitchDomain2.eth[0].phyLayer.phyHeaderChecker outgoingPacketLengths:vector ETV
attr interpolationmode none
attr recordingmode vector
attr source "packetLength(merge(packetPushedOut, packetPulledOut))"
attr title "outgoing packet lengths"
attr unit b
vector 249 TimeSyncUEUE.TsnSwitchDomain2.eth[0].macLayer.inboundEmitter incomingPacketLengths:vector ETV
attr interpolationmode none
attr recordingmode vector
attr source "packetLength(merge(packetPushedIn, packetPulledIn))"
attr title "incoming packet lengths"
attr unit b
vector 250 TimeSyncUEUE.TsnSwitchDomain2.eth[0].macLayer.inboundEmitter outgoingPacketLengths:vector ETV
attr interpolationmode none
attr recordingmode vector
attr source "packetLength(merge(packetPushedOut, packetPulledOut))"
attr title "outgoing packet lengths"
attr unit b
vector 251 TimeSyncUEUE.TsnSwitchDomain2.eth[0].macLayer.fcsChecker incomingPacketLengths:vector ETV
attr interpolationmode none
attr recordingmode vector
attr source "packetLength(merge(packetPushedIn, packetPulledIn))"
attr title "incoming packet lengths"
attr unit b
vector 252 TimeSyncUEUE.TsnSwitchDomain2.eth[0].macLayer.fcsChecker outgoingPacketLengths:vector ETV
attr interpolationmode none
attr recordingmode vector
attr source "packetLength(merge(packetPushedOut, packetPulledOut))"
attr title "outgoing packet lengths"
attr unit b
vector 253 TimeSyncUEUE.TsnSwitchDomain2.ethernet.fcsChecker incomingPacketLengths:vector ETV
attr interpolationmode none
attr recordingmode vector
attr source "packetLength(merge(packetPushedIn, packetPulledIn))"
attr title "incoming packet lengths"
attr unit b
vector 254 TimeSyncUEUE.TsnSwitchDomain2.ethernet.fcsChecker outgoingPacketLengths:vector ETV
attr interpolationmode none
attr recordingmode vector
attr source "packetLength(merge(packetPushedOut, packetPulledOut))"
attr title "outgoing packet lengths"
attr unit b
vector 255 TimeSyncUEUE.TsnSwitchDomain2.ethernet.macHeaderChecker incomingPacketLengths:vector ETV
attr interpolationmode none
attr recordingmode vector
attr source "packetLength(merge(packetPushedIn, packetPulledIn))"
attr title "incoming packet lengths"
attr unit b
vector 256 TimeSyncUEUE.TsnSwitchDomain2.ethernet.macHeaderChecker outgoingPacketLengths:vector ETV
attr interpolationmode none
attr recordingmode vector
attr source "packetLength(merge(packetPushedOut, packetPulledOut))"
attr title "outgoing packet lengths"
attr unit b
vector 257 TimeSyncUEUE.TsnSwitchDataNetwork.eth[0].phyLayer.receiver receptionTime:vector ETV
attr interpolationmode none
attr recordingmode vector
attr source packetDuration(receptionEnded)
attr title "reception time"
attr unit s
vector 258 TimeSyncUEUE.TsnSwitchDataNetwork.eth[0].phyLayer.inboundEmitter incomingPacketLengths:vector ETV
attr interpolationmode none
attr recordingmode vector
attr source "packetLength(merge(packetPushedIn, packetPulledIn))"
attr title "incoming packet lengths"
attr unit b
vector 259 TimeSyncUEUE.TsnSwitchDataNetwork.eth[0].phyLayer.inboundEmitter outgoingPacketLengths:vector ETV
attr interpolationmode none
attr recordingmode vector
attr source "packetLength(merge(packetPushedOut, packetPulledOut))"
attr title "outgoing packet lengths"
attr unit b
vector 260 TimeSyncUEUE.TsnSwitchDataNetwork.eth[0].phyLayer.phyHeaderChecker incomingPacketLengths:vector ETV
attr interpolationmode none
attr recordingmode vector
attr source "packetLength(merge(packetPushedIn, packetPulledIn))"
attr title "incoming packet lengths"
attr unit b
vector 261 TimeSyncUEUE.TsnSwitchDataNetwork.eth[0].phyLayer.phyHeaderChecker outgoingPacketLengths:vector ETV
attr interpolationmode none
attr recordingmode vector
attr source "packetLength(merge(packetPushedOut, packetPulledOut))"
attr title "outgoing packet lengths"
attr unit b
vector 262 TimeSyncUEUE.TsnSwitchDataNetwork.eth[0].macLayer.inboundEmitter incomingPacketLengths:vector ETV
attr interpolationmode none
attr recordingmode vector
attr source "packetLength(merge(packetPushedIn, packetPulledIn))"
attr title "incoming packet lengths"
attr unit b
vector 263 TimeSyncUEUE.TsnSwitchDataNetwork.eth[0].macLayer.inboundEmitter outgoingPacketLengths:vector ETV
attr interpolationmode none
attr recordingmode vector
attr source "packetLength(merge(packetPushedOut, packetPulledOut))"
attr title "outgoing packet lengths"
attr unit b
vector 264 TimeSyncUEUE.TsnSwitchDataNetwork.eth[0].macLayer.fcsChecker incomingPacketLengths:vector ETV
attr interpolationmode none
attr recordingmode vector
attr source "packetLength(merge(packetPushedIn, packetPulledIn))"
attr title "incoming packet lengths"
attr unit b
vector 265 TimeSyncUEUE.TsnSwitchDataNetwork.eth[0].macLayer.fcsChecker outgoingPacketLengths:vector ETV
attr interpolationmode none
attr recordingmode vector
attr source "packetLength(merge(packetPushedOut, packetPulledOut))"
attr title "outgoing packet lengths"
attr unit b
vector 266 TimeSyncUEUE.TsnSwitchDataNetwork.ethernet.fcsChecker incomingPacketLengths:vector ETV
attr interpolationmode none
attr recordingmode vector
attr source "packetLength(merge(packetPushedIn, packetPulledIn))"
attr title "incoming packet lengths"
attr unit b
vector 267 TimeSyncUEUE.TsnSwitchDataNetwork.ethernet.fcsChecker outgoingPacketLengths:vector ETV
attr interpolationmode none
attr recordingmode vector
attr source "packetLength(merge(packetPushedOut, packetPulledOut))"
attr title "outgoing packet lengths"
attr unit b
vector 268 TimeSyncUEUE.TsnSwitchDataNetwork.ethernet.macHeaderChecker incomingPacketLengths:vector ETV
attr interpolationmode none
attr recordingmode vector
attr source "packetLength(merge(packetPushedIn, packetPulledIn))"
attr title "incoming packet lengths"
attr unit b
vector 269 TimeSyncUEUE.TsnSwitchDataNetwork.ethernet.macHeaderChecker outgoingPacketLengths:vector ETV
attr interpolationmode none
attr recordingmode vector
attr source "packetLength(merge(packetPushedOut, packetPulledOut))"
attr title "outgoing packet lengths"
attr unit b
vector 270 TimeSyncUEUE.FGS.dstt[0].gptp.domain[0] peerDelay:vector ETV
attr interpolationmode sample-hold
attr recordingmode vector
vector 271 TimeSyncUEUE.TsnSwitchDomain2.gptp peerDelay:vector ETV
attr interpolationmode sample-hold
attr recordingmode vector
vector 272 TimeSyncUEUE.TsnSwitchDataNetwork.gptp peerDelay:vector ETV
attr interpolationmode sample-hold
attr recordingmode vector
vector 273 TimeSyncUEUE.FGS.dstt[0].clock.oscillator driftRateChanged:vector ETV
attr interpolationmode sample-hold
attr recordingmode vector
attr title "Oscillator drift rate"
attr unit ppm
vector 274 TimeSyncUEUE.TsnSwitchDomain1.gptp localTime:vector ETV
attr interpolationmode linear
attr recordingmode vector
vector 275 TimeSyncUEUE.TsnSwitchDomain1.gptp timeDifference:vector ETV
attr interpolationmode linear
attr recordingmode vector
vector 276 TimeSyncUEUE.TsnSwitchDomain1.ethernet.macHeaderInserter incomingDataRate:vector ETV
attr interpolationmode linear
attr recordingmode vector
attr source "throughput(merge(packetPushedIn, packetPulledIn))"
attr title "incoming data rate"
attr unit bps
vector 277 TimeSyncUEUE.TsnSwitchDomain1.ethernet.macHeaderInserter outgoingDataRate:vector ETV
attr interpolationmode linear
attr recordingmode vector
attr source "throughput(merge(packetPushedOut, packetPulledOut))"
attr title "outgoing data rate"
attr unit bps
vector 278 TimeSyncUEUE.TsnSwitchDomain1.ethernet.paddingInserter incomingDataRate:vector ETV
attr interpolationmode linear
attr recordingmode vector
attr source "throughput(merge(packetPushedIn, packetPulledIn))"
attr title "incoming data rate"
attr unit bps
vector 279 TimeSyncUEUE.TsnSwitchDomain1.ethernet.paddingInserter outgoingDataRate:vector ETV
attr interpolationmode linear
attr recordingmode vector
attr source "throughput(merge(packetPushedOut, packetPulledOut))"
attr title "outgoing data rate"
attr unit bps
vector 280 TimeSyncUEUE.TsnSwitchDomain1.ethernet.fcsInserter incomingDataRate:vector ETV
attr interpolationmode linear
attr recordingmode vector
attr source "throughput(merge(packetPushedIn, packetPulledIn))"
attr title "incoming data rate"
attr unit bps
[...]
410	9236224 33053 132 45962 0.145463835484 99.900313311636 799 0.145464865506 99.900283522277 39969.043664976 2663573.2363716
411	9269277 23512 132 45962 0.145463835484 99.900313311636 799 0 798 318801 169708399
412	9292789 16602 427 45539 0.1 99 990 0 4320 427680 1847577600
413	9309391 16602 427 45539 0.1 99 990 0 5440 538560 2929766400
414	9325993 16602 427 45539 0.1 99 990 0 5440 538560 2929766400
415	9342595 16602 427 45539 0.1 99 990 0 5440 538560 2929766400
416	9359197 16602 427 45539 0.1 99 990 0 5440 538560 2929766400
417	9375799 16602 427 45539 0.1 99 990 0 5760 570240 3284582400
418	9392401 16774 427 45998 0.1 100 1000 0 5760 576000 3317760000
419	9409175 16758 428 45966 0.1 99.9 999 0 4320 432000 1866240000
420	9425933 16758 428 45966 0.1 99.9 999 0 5440 544000 2959360000
421	9442691 16758 428 45966 0.1 99.9 999 0 5440 544000 2959360000
422	9459449 16758 428 45966 0.1 99.9 999 0 5440 544000 2959360000
423	9476207 16758 428 45966 0.1 99.9 999 0 5440 544000 2959360000
424	9492965 16758 428 45966 0.1 99.9 999 0 5760 576000 3317760000
425	9509723 16777 428 45998 0.1 100 1000 0 5760 581760 3350937600
426	9526500 16774 429 45998 0.1 100 1000 0 5760 576000 3317760000
427	9543274 16774 429 45998 0.1 100 1000 0 5760 576000 3317760000
428	9560048 16774 429 45998 0.1 100 1000 0 5760 576000 3317760000
429	9576822 16602 429 45540 0.1 99 990 0 5760 570240 3284582400
430	9593424 16602 429 45540 0.1 99 990 0 5760 570240 3284582400
431	9610026 16602 429 45540 0.1 99 990 0 5760 570240 3284582400
432	9626628 16602 429 45540 0.1 99 990 0 6400 633600 4055040000
433	9643230 16602 429 45540 0.1 99 990 0 6400 633600 4055040000
434	9659832 16602 429 45540 0.1 99 990 0 6400 633600 4055040000
435	9676434 17617 429 45540 0.1 99 990 0 0.064 6.336 0.32666279592803
436	9694051 16777 430 45998 0.1 100 1000 0 5760 581760 3350937600
437	9710828 16777 430 45998 0.1 100 1000 0 5760 581760 3350937600
438	9727605 16777 430 45998 0.1 100 1000 0 5760 581760 3350937600
439	9744382 16758 430 45967 0.1 99.9 999 0 5760 576000 3317760000
440	9761140 16758 430 45967 0.1 99.9 999 0 5760 576000 3317760000
441	9777898 16758 430 45967 0.1 99.9 999 0 5760 576000 3317760000
442	9794656 16758 430 45967 0.1 99.9 999 0 6400 640000 4096000000
443	9811414 16758 430 45967 0.1 99.9 999 0 6400 640000 4096000000
444	9828172 16758 430 45967 0.1 99.9 999 0 6400 640000 4096000000
445	9844930 16858 430 45967 0.1 99.9 999 0 0.064 6.4 0.4096
446	9861788 16772 431 45998 0.1 100 1000 0 6400 640000 4096000000
447	9878560 16777 432 45998 0.1 100 1000 0 6400 646400 4136960000
448	9895337 16772 433 45998 0.1 100 1000 0 6400 640000 4096000000
449	9912109 16600 433 45560 0.1 99 990 0 6400 633600 4055040000
450	9928709 16600 433 45560 0.1 99 990 0 6400 633600 4055040000
451	9945309 16600 433 45560 0.1 99 990 0 6400 633600 4055040000
452	9961909 16600 433 45560 0.1 99 990 0 5760 570240 3284582400
453	9978509 16600 433 45560 0.1 99 990 0 5760 570240 3284582400
454	9995109 16600 433 45560 0.1 99 990 0 5760 570240 3284582400
455	10011709 16600 433 45560 0.1 99 990 0 5760 570240 3284582400
456	10028309 16600 433 45560 0.1 99 990 0 5760 570240 3284582400
457	10044909 16758 434 45969 0.1 99.9 999 0 6400 640000 4096000000
458	10061667 16758 434 45969 0.1 99.9 999 0 6400 640000 4096000000
459	10078425 16758 434 45969 0.1 99.9 999 0 6400 640000 4096000000
460	10095183 16758 434 45969 0.1 99.9 999 0 6400 640000 4096000000
461	10111941 16758 434 45969 0.1 99.9 999 0 5760 576000 3317760000
462	10128699 16758 434 45969 0.1 99.9 999 0 5760 576000 3317760000
463	10145457 16758 434 45969 0.1 99.9 999 0 5760 576000 3317760000
464	10162215 16758 434 45969 0.1 99.9 999 0 5760 576000 3317760000
465	10178973 16758 434 45969 0.1 99.9 999 0 5760 576000 3317760000
466	10195731 16758 434 45969 0.1 99.9 999 0 5760 576000 3317760000
467	10212489 16758 434 45969 0.1 99.9 999 0 5440 544000 2959360000
468	10229247 16758 434 45969 0.1 99.9 999 0 5440 544000 2959360000
469	10246005 16758 434 45969 0.1 99.9 999 0 4320 432000 1866240000
470	10262763 16758 434 45969 0.1 99.9 999 0 4320 432000 1866240000
471	10279521 16758 434 45969 0.1 99.9 999 0 4320 432000 1866240000
472	10296279 16758 434 45969 0.1 99.9 999 0 4320 432000 1866240000
473	10313037 16758 434 45969 0.1 99.9 999 0 4320 432000 1866240000
474	10329795 16758 434 45969 0.1 99.9 999 0 4320 432000 1866240000
475	10346553 16761 440 45972 0.1 99.9 999 0 8640 864000 7427635200
476	10363314 16761 440 45972 0.1 99.9 999 0 8640 864000 7427635200
477	10380075 16761 442 45973 0.1 99.9 999 0 8640 864000 7427635200
478	10396836 16860 442 45973 0.1 99.9 999 0 10880 1088000 11778252800
479	10413696 16860 442 45973 0.1 99.9 999 0 10880 1088000 11778252800
480	10430556 16860 442 45973 0.1 99.9 999 0 10880 1088000 11778252800
481	10447416 16860 442 45973 0.1 99.9 999 0 10880 1088000 11778252800
482	10464276 16860 442 45973 0.1 99.9 999 0 11520 1152000 13204684800
483	10481136 16860 442 45973 0.1 99.9 999 0 11520 1152000 13204684800
484	10497996 16860 444 45974 0.1 99.9 999 0 11520 1152000 13204684800
485	10514856 16860 444 45974 0.1 99.9 999 0 11520 1152000 13204684800
486	10531716 16860 444 45974 0.1 99.9 999 0 11520 1152000 13204684800
487	10548576 16860 444 45974 0.1 99.9 999 0 11520 1152000 13204684800
488	10565436 16860 444 45974 0.1 99.9 999 0 11520 1152000 13204684800
489	10582296 16860 444 45974 0.1 99.9 999 0 11520 1152000 13204684800
490	10599156 16860 444 45974 0.1 99.9 999 0 12800 1280000 16302080000
491	10616016 16860 444 45974 0.1 99.9 999 0 12800 1280000 16302080000
492	10632876 16860 444 45974 0.1 99.9 999 0 12800 1280000 16302080000
493	10649736 16881 444 45974 0.1 99.9 999 0 0.128 12.8 1.6305201452173
494	10666617 16776 455 45998 0.1 100 1000 0 5760 581760 3350937600
495	10683393 16776 456 45998 0.1 100 1000 0 5760 581760 3350937600
496	10700169 16776 456 45998 0.1 100 1000 0 5760 581760 3350937600
497	10716945 16776 456 45998 0.1 100 1000 0 5760 581760 3350937600
498	10733721 16757 456 45993 0.1 99.9 999 0 5760 576000 3317760000
499	10750478 16757 456 45993 0.1 99.9 999 0 5760 576000 3317760000
500	10767235 16757 456 45993 0.1 99.9 999 0 5760 576000 3317760000
501	10783992 16757 456 45993 0.1 99.9 999 0 6400 640000 4096000000
502	10800749 16757 456 45993 0.1 99.9 999 0 6400 640000 4096000000
503	10817506 16757 456 45993 0.1 99.9 999 0 6400 640000 4096000000
504	10834263 18321 456 45993 0.1 99.9 999 0 0.064 6.4 0.27040343139846
505	10852584 16859 458 45977 0.1 99.9 999 0 12800 1280000 16302080000
506	10869443 16879 466 45998 0.1 100 1000 0 12800 1292800 16465920000
507	10886322 16859 466 45981 0.1 99.9 999 0 12800 1280000 16302080000
508	10903181 16859 466 45981 0.1 99.9 999 0 12800 1280000 16302080000
509	10920040 16859 466 45981 0.1 99.9 999 0 12800 1280000 16302080000
510	10936899 16859 466 45981 0.1 99.9 999 0 11520 1152000 13204684800
511	10953758 16859 466 45981 0.1 99.9 999 0 11520 1152000 13204684800
512	10970617 16859 466 45981 0.1 99.9 999 0 11520 1152000 13204684800
513	10987476 16859 466 45981 0.1 99.9 999 0 11520 1152000 13204684800
514	11004335 16859 466 45981 0.1 99.9 999 0 11520 1152000 13204684800
515	11021194 16859 466 45981 0.1 99.9 999 0 11520 1152000 13204684800
516	11038053 16859 466 45981 0.1 99.9 999 0 10880 1088000 11778252800
517	11054912 16859 466 45981 0.1 99.9 999 0 10880 1088000 11778252800
518	11071771 16760 466 45981 0.1 99.9 999 0 8640 864000 7427635200
519	11088531 16772 481 45998 0.1 100 1000 0 6400 640000 4096000000
520	11105303 16772 482 45998 0.1 100 1000 0 6400 640000 4096000000
521	11122075 16600 482 45542 0.1 99 990 0 6400 633600 4055040000
522	11138675 16600 482 45542 0.1 99 990 0 6400 633600 4055040000
523	11155275 16600 482 45542 0.1 99 990 0 6400 633600 4055040000
524	11171875 16600 482 45542 0.1 99 990 0 5760 570240 3284582400
525	11188475 16600 482 45542 0.1 99 990 0 5760 570240 3284582400
526	11205075 16600 482 45542 0.1 99 990 0 5760 570240 3284582400
527	11221675 16600 482 45542 0.1 99 990 0 5760 570240 3284582400
528	11238275 16600 482 45542 0.1 99 990 0 5760 570240 3284582400
529	11254875 16600 482 45542 0.1 99 990 0 5760 570240 3284582400
530	11271475 16600 482 45542 0.1 99 990 0 5440 538560 2929766400
531	11288075 16600 482 45542 0.1 99 990 0 5440 538560 2929766400
532	11304675 16600 482 45542 0.1 99 990 0 4320 427680 1847577600
533	11321275 16702 45998 45998 0.1 100 1000 0 0 0 0
534	11337977 16702 45998 45998 0.1 100 1000 0 0 0 0
535	11354679 16702 45998 45998 0.1 100 1000 0 0 0 0
536	11371381 16702 45998 45998 0.1 100 1000 0 0 0 0
537	11388083 16702 45998 45998 0.1 100 1000 0 0 0 0
538	11404785 16702 45998 45998 0.1 100 1000 0 0 0 0
539	11421487 16702 45998 45998 0.1 100 1000 0 0 0 0
540	11438189 16702 45998 45998 0.1 100 1000 0 0 0 0
541	11454891 16702 45998 45998 0.1 100 1000 0 0 0 0
542	11471593 16702 45998 45998 0.1 100 1000 0 0 0 0
543	11488295 16702 45998 45998 0.1 100 1000 0 0 0 0
544	11504997 16702 45998 45998 0.1 100 1000 0 0 0 0
545	11521699 16702 45998 45998 0.1 100 1000 0 0 0 0
546	11538401 16702 45998 45998 0.1 100 1000 0 0 0 0
547	11555103 16702 45998 45998 0.1 100 1000 0 0 0 0
548	11571805 16702 45998 45998 0.1 100 1000 0 0 0 0
549	11588507 16702 45998 45998 0.1 100 1000 0 0 0 0
550	11605209 16702 45998 45998 0.1 100 1000 0 0 0 0
551	11621911 16702 45998 45998 0.1 100 1000 0 0 0 0
552	11638613 16702 45998 45998 0.1 100 1000 0 0 0 0
553	11655315 16702 45998 45998 0.1 100 1000 0 0 0 0
554	11672017 16702 45998 45998 0.1 100 1000 0 0 0 0
555	11688719 16702 45998 45998 0.1 100 1000 0 0 0 0
556	11705421 16702 45998 45998 0.1 100 1000 0 0 0 0
557	11722123 16702 45998 45998 0.1 100 1000 0 0 0 0
558	11738825 16702 45998 45998 0.1 100 1000 0 0 0 0
559	11755527 16702 45998 45998 0.1 100 1000 0 0 0 0
560	11772229 16702 45998 45998 0.1 100 1000 0 0 0 0
561	11788931 16702 45998 45998 0.1 100 1000 0 0 0 0
562	11805633 16702 45998 45998 0.1 100 1000 0 0 0 0
563	11822335 16702 45998 45998 0.1 100 1000 0 0 0 0
564	11839037 16702 45998 45998 0.1 100 1000 0 0 0 0
565	11855739 16702 45998 45998 0.1 100 1000 0 0 0 0
566	11872441 16702 45998 45998 0.1 100 1000 0 0 0 0
567	11889143 16702 45998 45998 0.1 100 1000 0 0 0 0
568	11905845 16702 45998 45998 0.1 100 1000 0 0 0 0
569	11922547 16702 45998 45998 0.1 100 1000 0 0 0 0
570	11939249 16702 45998 45998 0.1 100 1000 0 0 0 0
571	11955951 16702 45998 45998 0.1 100 1000 0 0 0 0
572	11972653 10553 45998 45998 0.1 63.4 634 0 0 0 0
vector 573 TimeSyncUEUE.FGS.dstt[1].tt[0].phyLayer.transmitter throughput:vector ETV
attr interpolationmode linear
attr recordingmode vector
attr source throughput(transmissionEnded)
attr title throughput
attr unit bps
vector 574 TimeSyncUEUE.FGS.dstt[1].tt[0].phyLayer.phyHeaderChecker droppedDataRate:vector ETV
attr interpolationmode linear
attr recordingmode vector
attr source throughput(packetDropped)
attr title "dropped data rate"
attr unit bps
vector 575 TimeSyncUEUE.FGS.dstt[1].tt[0].phyLayer.receiver throughput:vector ETV
attr interpolationmode linear
attr recordingmode vector
attr source throughput(receptionEnded)
attr title throughput
attr unit bps
vector 576 TimeSyncUEUE.FGS.dstt[1].tt[1].macLayer.queue outgoingDataRate:vector ETV
attr interpolationmode linear
attr recordingmode vector
attr source throughput(packetPulled)
attr title "outgoing datarate"
attr unit bps
vector 577 TimeSyncUEUE.FGS.dstt[1].tt[1].macLayer.queue incomingDataRate:vector ETV
attr interpolationmode linear
attr recordingmode vector
attr source throughput(packetPushStarted)
attr title "incoming datarate"
attr unit bps
vector 578 TimeSyncUEUE.FGS.dstt[1].tt[1].macLayer.server incomingDataRate:vector ETV
attr interpolationmode linear
attr recordingmode vector
attr source throughput(packetPulled)
attr title "incoming datarate"
attr unit bps
vector 579 TimeSyncUEUE.FGS.dstt[1].tt[1].macLayer.server outgoingDataRate:vector ETV
attr interpolationmode linear
attr recordingmode vector
attr source throughput(packetPushed)
attr title "outgoing datarate"
attr unit bps
vector 580 TimeSyncUEUE.FGS.dstt[1].tt[1].macLayer.fcsChecker droppedDataRate:vector ETV
attr interpolationmode linear
attr recordingmode vector
attr source throughput(packetDropped)
attr title "dropped data rate"
attr unit bps
vector 581 TimeSyncUEUE.FGS.dstt[1].tt[1].phyLayer.transmitter throughput:vector ETV
attr interpolationmode linear
attr recordingmode vector
attr source throughput(transmissionEnded)
attr title throughput
attr unit bps
vector 582 TimeSyncUEUE.FGS.dstt[1].tt[1].phyLayer.phyHeaderChecker droppedDataRate:vector ETV
attr interpolationmode linear
attr recordingmode vector
attr source throughput(packetDropped)
attr title "dropped data rate"
attr unit bps
vector 583 TimeSyncUEUE.FGS.nwtt[0].ethernet.macHeaderChecker droppedDataRate:vector ETV
attr interpolationmode linear
attr recordingmode vector
attr source throughput(packetDropped)
attr title "dropped data rate"
attr unit bps
vector 584 TimeSyncUEUE.FGS.nwtt[0].ethernet.fcsChecker droppedDataRate:vector ETV
attr interpolationmode linear
attr recordingmode vector
attr source throughput(packetDropped)
attr title "dropped data rate"
attr unit bps
vector 585 TimeSyncUEUE.FGS.nwtt[0].ieee8021q.qTagHeaderChecker droppedDataRate:vector ETV
attr interpolationmode linear
attr recordingmode vector
attr source throughput(packetDropped)
attr title "dropped data rate"
attr unit bps
vector 586 TimeSyncUEUE.FGS.nwtt[0].ieee8021r.rTagHeaderChecker droppedDataRate:vector ETV
attr interpolationmode linear
attr recordingmode vector
attr source throughput(packetDropped)
attr title "dropped data rate"
attr unit bps
vector 587 TimeSyncUEUE.FGS.nwtt[0].eth[0].macLayer.fcsChecker droppedDataRate:vector ETV
attr interpolationmode linear
attr recordingmode vector
attr source throughput(packetDropped)
attr title "dropped data rate"
attr unit bps
vector 588 TimeSyncUEUE.FGS.nwtt[0].eth[0].phyLayer.phyHeaderChecker droppedDataRate:vector ETV
attr interpolationmode linear
attr recordingmode vector
attr source throughput(packetDropped)
attr title "dropped data rate"
attr unit bps
vector 589 TimeSyncUEUE.FGS.nwtt[0].tt[0].macLayer.queue outgoingDataRate:vector ETV
attr interpolationmode linear
attr recordingmode vector
attr source throughput(packetPulled)
attr title "outgoing datarate"
attr unit bps
vector 590 TimeSyncUEUE.FGS.nwtt[0].tt[0].macLayer.queue incomingDataRate:vector ETV
attr interpolationmode linear
attr recordingmode vector
attr source throughput(packetPushStarted)
attr title "incoming datarate"
attr unit bps
vector 591 TimeSyncUEUE.FGS.nwtt[0].tt[0].macLayer.server incomingDataRate:vector ETV
attr interpolationmode linear
attr recordingmode vector
attr source throughput(packetPulled)
attr title "incoming datarate"
attr unit bps
vector 592 TimeSyncUEUE.FGS.nwtt[0].tt[0].macLayer.server outgoingDataRate:vector ETV
attr interpolationmode linear
attr recordingmode vector
attr source throughput(packetPushed)
attr title "outgoing datarate"
attr unit bps
vector 593 TimeSyncUEUE.FGS.nwtt[0].tt[0].macLayer.fcsChecker droppedDataRate:vector ETV
attr interpolationmode linear
attr recordingmode vector
attr source throughput(packetDropped)
attr title "dropped data rate"
attr unit bps
vector 594 TimeSyncUEUE.FGS.nwtt[0].tt[0].phyLayer.transmitter throughput:vector ETV
attr interpolationmode linear
attr recordingmode vector
attr source throughput(transmissionEnded)
attr title throughput
attr unit bps
vector 595 TimeSyncUEUE.FGS.nwtt[0].tt[0].phyLayer.phyHeaderChecker droppedDataRate:vector ETV
attr interpolationmode linear
attr recordingmode vector
attr source throughput(packetDropped)
attr title "dropped data rate"
attr unit bps
vector 596 TimeSyncUEUE.FGS.nwtt[0].tt[0].phyLayer.receiver throughput:vector ETV
attr interpolationmode linear
attr recordingmode vector
attr source throughput(receptionEnded)
attr title throughput
attr unit bps
vector 597 TimeSyncUEUE.FGS.nwtt[0].tt[1].macLayer.queue outgoingDataRate:vector ETV
attr interpolationmode linear
attr recordingmode vector
attr source throughput(packetPulled)
attr title "outgoing datarate"
attr unit bps
vector 598 TimeSyncUEUE.FGS.nwtt[0].tt[1].macLayer.queue incomingDataRate:vector ETV
attr interpolationmode linear
attr recordingmode vector
attr source throughput(packetPushStarted)
attr title "incoming datarate"
attr unit bps
vector 599 TimeSyncUEUE.FGS.nwtt[0].tt[1].macLayer.server incomingDataRate:vector ETV
attr interpolationmode linear
attr recordingmode vector
attr source throughput(packetPulled)
attr title "incoming datarate"
attr unit bps
vector 600 TimeSyncUEUE.FGS.nwtt[0].tt[1].macLayer.server outgoingDataRate:vector ETV
attr interpolationmode linear
attr recordingmode vector
attr source throughput(packetPushed)
attr title "outgoing datarate"
attr unit bps
vector 601 TimeSyncUEUE.FGS.nwtt[0].tt[1].macLayer.fcsChecker droppedDataRate:vector ETV
attr interpolationmode linear
attr recordingmode vector
attr source throughput(packetDropped)
attr title "dropped data rate"
attr unit bps
vector 602 TimeSyncUEUE.FGS.nwtt[0].tt[1].phyLayer.transmitter throughput:vector ETV
attr interpolationmode linear
attr recordingmode vector
attr source throughput(transmissionEnded)
attr title throughput
attr unit bps
vector 603 TimeSyncUEUE.FGS.nwtt[0].tt[1].phyLayer.phyHeaderChecker droppedDataRate:vector ETV
attr interpolationmode linear
attr recordingmode vector
attr source throughput(packetDropped)
attr title "dropped data rate"
attr unit bps
vector 604 TimeSyncUEUE.FGS.nwtt[0].tt[1].phyLayer.receiver throughput:vector ETV
attr interpolationmode linear
attr recordingmode vector
attr source throughput(receptionEnded)
attr title throughput
attr unit bps
46	11990412 34 45998 45998 100 100 2 100 100 200 20000
342	11990446 19 45998 45998 100 100 1 8160 8160 8160 66585600
457	11990465 19 45998 45998 100 100 1 6400 6400 6400 40960000
474	11990484 19 45998 45998 100 100 1 4320 4320 4320 18662400
483	11990503 20 45998 45998 100 100 1 11520 11520 11520 132710400
484	11990523 20 45998 45998 100 100 1 11520 11520 11520 132710400
485	11990543 20 45998 45998 100 100 1 11520 11520 11520 132710400
486	11990563 20 45998 45998 100 100 1 11520 11520 11520 132710400
505	11990583 20 45998 45998 100 100 1 12800 12800 12800 163840000
572	11990603 6149 45998 45998 63.5 100 366 0 0 0 0
573	11996752 16702 45998 45998 0.1 100 1000 0 0 0 0
574	12013454 16702 45998 45998 0.1 100 1000 0 0 0 0
575	12030156 16702 45998 45998 0.1 100 1000 0 0 0 0
576	12046858 16702 45998 45998 0.1 100 1000 0 0 0 0
577	12063560 16702 45998 45998 0.1 100 1000 0 0 0 0
578	12080262 16702 45998 45998 0.1 100 1000 0 0 0 0
579	12096964 16702 45998 45998 0.1 100 1000 0 0 0 0
580	12113666 16702 45998 45998 0.1 100 1000 0 0 0 0
581	12130368 16702 45998 45998 0.1 100 1000 0 0 0 0
582	12147070 16702 45998 45998 0.1 100 1000 0 0 0 0
583	12163772 16702 45998 45998 0.1 100 1000 0 0 0 0
584	12180474 16702 45998 45998 0.1 100 1000 0 0 0 0
585	12197176 16702 45998 45998 0.1 100 1000 0 0 0 0
586	12213878 16702 45998 45998 0.1 100 1000 0 0 0 0
587	12230580 16702 45998 45998 0.1 100 1000 0 0 0 0
588	12247282 16702 45998 45998 0.1 100 1000 0 0 0 0
589	12263984 16702 45998 45998 0.1 100 1000 0 0 0 0
590	12280686 16702 45998 45998 0.1 100 1000 0 0 0 0
591	12297388 16702 45998 45998 0.1 100 1000 0 0 0 0
592	12314090 16702 45998 45998 0.1 100 1000 0 0 0 0
593	12330792 16702 45998 45998 0.1 100 1000 0 0 0 0
594	12347494 16702 45998 45998 0.1 100 1000 0 0 0 0
595	12364196 16702 45998 45998 0.1 100 1000 0 0 0 0
596	12380898 16702 45998 45998 0.1 100 1000 0 0 0 0
597	12397600 16702 45998 45998 0.1 100 1000 0 0 0 0
598	12414302 16702 45998 45998 0.1 100 1000 0 0 0 0
599	12431004 16702 45998 45998 0.1 100 1000 0 0 0 0
600	12447706 16702 45998 45998 0.1 100 1000 0 0 0 0
601	12464408 16702 45998 45998 0.1 100 1000 0 0 0 0
602	12481110 16702 45998 45998 0.1 100 1000 0 0 0 0
603	12497812 16702 45998 45998 0.1 100 1000 0 0 0 0
604	12514514 16702 45998 45998 0.1 100 1000 0 0 0 0

