file 11611638 1736121913                                        
version 3
run UEUE4-0-20250105-21:05:09-126204
attr configname UEUE4
attr datetime 20250105-21:05:09
attr datetimef 20250105-210509
attr experiment UEUE4
attr inifile omnetppTest.ini
attr iterationvars ""
attr iterationvarsd ""
attr iterationvarsf ""
attr measurement ""
attr network TimeSyncUEUE
attr processid 126204
attr repetition 0
attr replication #0
attr resultdir results
attr runnumber 0
attr seedset 0
config image-path ../../../inet4.5-2/images
config extends UE-UE
config *.FGS.**.clock.typename IdealClock
config *.TsnSwitchDomain1.clock.oscillator.typename RandomDriftOscillator
config **.clock.oscillator.typename ConstantDriftOscillator
config *.TsnSwitchDomain1.clock.oscillator.driftRate -100ppm
config *.TsnSwitchDomain1.clock.oscillator.changeInterval 12.5ms
config *.TsnSwitchDomain1.clock.oscillator.driftRateChange "uniform(-10ppm, 10ppm)"
config *.*.clock.oscillator.driftRate 00ppm
config network TimeSyncUEUE
config *.TsnSwitchDomain1.gptp.gptpNodeType "\"MASTER_NODE\""
config *.TsnSwitchDomain1.gptp.masterPorts "[\"eth0\"]"
config *.TsnSwitchDomain1.gptp.slavePort "\"\""
config *.TsnSwitchDataNetwork.gptp.slavePort "\"eth0\""
config *.TsnSwitchDataNetwork.gptp.masterPorts []
config *.TsnSwitchDomain2.gptp.slavePort "\"eth0\""
config *.TsnSwitchDomain2.gptp.masterPorts []
config *.FGS.dstt[0].gptp.domain[*].masterPorts "[\"tt1\"]"
config *.FGS.dstt[0].gptp.domain[*].slavePort "\"eth0\""
config *.FGS.dstt[1].gptp.domain[*].masterPorts "[\"eth0\"]"
config *.FGS.dstt[1].gptp.domain[*].slavePort "\"tt1\""
config *.FGS.nwtt[*].gptp.domain[*].masterPorts "[\"eth0\"]"
config *.FGS.nwtt[*].gptp.domain[*].slavePort "\"tt0\""
config **.referenceClock "\"TsnSwitchDomain1.clock\""
config *.TsnSwitchDomain1.clock.displayStringTextFormat "\"time: %T\""
config *.TsnSwitchDataNetwork.clock.displayStringTextFormat "\"diff: %d\""
config *.TsnSwitchDomain2.clock.displayStringTextFormat "\"diff: %d\""
config network TimeSyncUEUE
config sim-time-limit 100s
config *.histogramContainer.histograms "{s1UL: \"../../../deterministic6g_data/PD-Wireless-5G-1/s1-UL_wall.xml\",\n\t\t\t\t\t\t\t\t\ts3UL: \"../../../deterministic6g_data/PD-Wireless-5G-1/s3-UL_wall.xml\",\n\t\t\t\t\t\t\t\t\ts4UL: \"../../../deterministic6g_data/PD-Wireless-5G-1/s4-UL_wall.xml\",\n\t\t\t\t\t\t\t\t\ts6UL: \"../../../deterministic6g_data/PD-Wireless-5G-1/s6-UL_wall.xml\",\n\t\t\t\t\t\t\t\t\ts7UL: \"../../../deterministic6g_data/PD-Wireless-5G-1/s7-UL_wall.xml\",\n\t\t\t\t\t\t\t\t\ts8UL: \"../../../deterministic6g_data/PD-Wireless-5G-1/s8-UL_wall.xml\",\n\t\t\t\t\t\t\t\t\ts9UL: \"../../../deterministic6g_data/PD-Wireless-5G-1/s9-UL_wall.xml\",\n\t\t\t\t\t\t\t\t\ts10DL: \"../../../deterministic6g_data/PD-Wireless-5G-1/s10-DL_wall.xml\",\n\t\t\t\t\t\t\t\t\ts19DL: \"../../../deterministic6g_data/PD-Wireless-5G-1/s19-DL_wall.xml\",\n\t\t\t\t\t\t\t\t\ts20UL: \"../../../deterministic6g_data/PD-Wireless-5G-1/s20-UL_wall.xml\",\n\t\t\t\t\t\t\t\t\ts22UL: \"../../../deterministic6g_data/PD-Wireless-5G-1/s22-UL_wall.xml\",\n\t\t\t\t\t\t\t\t\ts23DL: \"../../../deterministic6g_data/PD-Wireless-5G-1/s23-DL_wall.xml\",\n\t\t\t\t\t\t\t\t\ts24UL: \"../../../deterministic6g_data/PD-Wireless-5G-1/s24-UL_wall.xml\",\n\t\t\t\t\t\t\t\t\ts25DL: \"../../../deterministic6g_data/PD-Wireless-5G-1/s25-DL_wall.xml\",\n\t\t\t\t\t\t\t\t\ts26UL: \"../../../deterministic6g_data/PD-Wireless-5G-1/s26-UL_wall.xml\"}"
config *.FGS.d*.delayUplink "rngProvider(\"histogramContainer\",\"s1UL\")"
config *.FGS.n*.delayDownlink "rngProvider(\"histogramContainer\",\"s10DL\")"
config *.FGS.d*.delayD2D "rngProvider(\"histogramContainer\",\"s1UL\")+rngProvider(\"histogramContainer\",\"s10DL\")"
config *.**.hasTimeSynchronization true
config *.visualizer.typename IntegratedMultiCanvasVisualizer
config *.visualizer.infoVisualizer[*].displayInfos true
config *.visualizer.dataLinkVisualizer[0].displayLinks true
config *.visualizer.dataLinkVisualizer[0].activityLevel "\"protocol\""
config *.visualizer.dataLinkVisualizer[0].packetFilter "\"GptpSync\""
config *.visualizer.dataLinkVisualizer[0].lineColor "\"blue2\""
config *.visualizer.numInfoVisualizers 3
config *.visualizer.infoVisualizer[0].modules "\"*.TsnSwitchDataNetwork.clock\""
config *.visualizer.infoVisualizer[1].modules "\"*.TsnSwitchDomain1.clock\""
config *.visualizer.infoVisualizer[1].placementHint "\"topLeft\""
config *.visualizer.infoVisualizer[2].modules "\"*.TsnSwitchDomain2*.clock\""
config *.visualizer.infoVisualizer[2].placementHint "\"topRight\""

vector 0 TimeSyncUEUE.TsnSwitchDomain1.eth[0].macLayer.queue queueLength:vector ETV
attr autoWarmupFilter false
attr interpolationmode sample-hold
attr recordingmode vector
attr source "warmup(atomic(constant0(packetPushEnded) + count(packetPushStarted) - count(packetPulled) - count(packetRemoved) - count(packetDropped)))"
attr title "queue length"
attr unit pk
vector 1 TimeSyncUEUE.TsnSwitchDomain1.eth[0].macLayer.queue queueBitLength:vector ETV
attr autoWarmupFilter false
attr interpolationmode sample-hold
attr recordingmode vector
attr source "warmup(atomic(constant0(packetPushEnded) + sum(packetLength(packetPushStarted)) - sum(packetLength(packetPulled)) - sum(packetLength(packetRemoved)) - sum(packetLength(packetDropped))))"
attr title "queue bit length"
attr unit b
vector 2 TimeSyncUEUE.TsnSwitchDomain1.eth[0].phyLayer.interFrameGapInserter interpacketGap:vector ETV
attr interpolationmode sample-hold
attr recordingmode vector
attr source "count(interpacketGapStarted) - count(interpacketGapEnded)"
attr title "interpacket gap state"
attr type int
vector 3 TimeSyncUEUE.TsnSwitchDomain1.eth[0].phyLayer.transmitter transmitting:vector ETV
attr interpolationmode sample-hold
attr recordingmode vector
attr source "count(transmissionStarted) - count(transmissionEnded)"
attr title "transmitting state"
attr type int
vector 4 TimeSyncUEUE.TsnSwitchDomain1.udp passedUpPk:vector(count) ETV
attr interpolationmode none
attr recordingmode vector(count)
attr source packetSentToUpper
attr title "packets passed up, count"
vector 5 TimeSyncUEUE.TsnSwitchDomain1.udp droppedPkWrongPort:vector(count) ETV
attr interpolationmode none
attr recordingmode vector(count)
attr source packetDropReasonIsNoPortFound(packetDropped)
attr title "packets dropped (wrong port), count"
vector 6 TimeSyncUEUE.TsnSwitchDomain1.udp droppedPkBadChecksum:vector(count) ETV
attr interpolationmode none
attr recordingmode vector(count)
attr source packetDropReasonIsIncorrectlyReceived(packetDropped)
attr title "packets dropped (checksum error), count"
vector 7 TimeSyncUEUE.TsnSwitchDomain2.eth[0].macLayer.queue queueLength:vector ETV
attr autoWarmupFilter false
attr interpolationmode sample-hold
attr recordingmode vector
attr source "warmup(atomic(constant0(packetPushEnded) + count(packetPushStarted) - count(packetPulled) - count(packetRemoved) - count(packetDropped)))"
attr title "queue length"
attr unit pk
vector 8 TimeSyncUEUE.TsnSwitchDomain2.eth[0].macLayer.queue queueBitLength:vector ETV
attr autoWarmupFilter false
attr interpolationmode sample-hold
attr recordingmode vector
attr source "warmup(atomic(constant0(packetPushEnded) + sum(packetLength(packetPushStarted)) - sum(packetLength(packetPulled)) - sum(packetLength(packetRemoved)) - sum(packetLength(packetDropped))))"
attr title "queue bit length"
attr unit b
vector 9 TimeSyncUEUE.TsnSwitchDomain2.eth[0].phyLayer.interFrameGapInserter interpacketGap:vector ETV
attr interpolationmode sample-hold
attr recordingmode vector
attr source "count(interpacketGapStarted) - count(interpacketGapEnded)"
attr title "interpacket gap state"
attr type int
vector 10 TimeSyncUEUE.TsnSwitchDomain2.eth[0].phyLayer.transmitter transmitting:vector ETV
attr interpolationmode sample-hold
attr recordingmode vector
attr source "count(transmissionStarted) - count(transmissionEnded)"
attr title "transmitting state"
attr type int
vector 11 TimeSyncUEUE.TsnSwitchDomain2.udp passedUpPk:vector(count) ETV
attr interpolationmode none
attr recordingmode vector(count)
attr source packetSentToUpper
attr title "packets passed up, count"
vector 12 TimeSyncUEUE.TsnSwitchDomain2.udp droppedPkWrongPort:vector(count) ETV
attr interpolationmode none
attr recordingmode vector(count)
attr source packetDropReasonIsNoPortFound(packetDropped)
attr title "packets dropped (wrong port), count"
vector 13 TimeSyncUEUE.TsnSwitchDomain2.udp droppedPkBadChecksum:vector(count) ETV
attr interpolationmode none
attr recordingmode vector(count)
attr source packetDropReasonIsIncorrectlyReceived(packetDropped)
attr title "packets dropped (checksum error), count"
vector 14 TimeSyncUEUE.TsnSwitchDataNetwork.eth[0].macLayer.queue queueLength:vector ETV
attr autoWarmupFilter false
attr interpolationmode sample-hold
attr recordingmode vector
attr source "warmup(atomic(constant0(packetPushEnded) + count(packetPushStarted) - count(packetPulled) - count(packetRemoved) - count(packetDropped)))"
attr title "queue length"
attr unit pk
vector 15 TimeSyncUEUE.TsnSwitchDataNetwork.eth[0].macLayer.queue queueBitLength:vector ETV
attr autoWarmupFilter false
attr interpolationmode sample-hold
attr recordingmode vector
attr source "warmup(atomic(constant0(packetPushEnded) + sum(packetLength(packetPushStarted)) - sum(packetLength(packetPulled)) - sum(packetLength(packetRemoved)) - sum(packetLength(packetDropped))))"
attr title "queue bit length"
attr unit b
vector 16 TimeSyncUEUE.TsnSwitchDataNetwork.eth[0].phyLayer.interFrameGapInserter interpacketGap:vector ETV
attr interpolationmode sample-hold
attr recordingmode vector
attr source "count(interpacketGapStarted) - count(interpacketGapEnded)"
attr title "interpacket gap state"
attr type int
vector 17 TimeSyncUEUE.TsnSwitchDataNetwork.eth[0].phyLayer.transmitter transmitting:vector ETV
attr interpolationmode sample-hold
attr recordingmode vector
attr source "count(transmissionStarted) - count(transmissionEnded)"
attr title "transmitting state"
attr type int
vector 18 TimeSyncUEUE.TsnSwitchDataNetwork.udp passedUpPk:vector(count) ETV
attr interpolationmode none
attr recordingmode vector(count)
attr source packetSentToUpper
attr title "packets passed up, count"
vector 19 TimeSyncUEUE.TsnSwitchDataNetwork.udp droppedPkWrongPort:vector(count) ETV
attr interpolationmode none
attr recordingmode vector(count)
attr source packetDropReasonIsNoPortFound(packetDropped)
attr title "packets dropped (wrong port), count"
vector 20 TimeSyncUEUE.TsnSwitchDataNetwork.udp droppedPkBadChecksum:vector(count) ETV
attr interpolationmode none
attr recordingmode vector(count)
attr source packetDropReasonIsIncorrectlyReceived(packetDropped)
attr title "packets dropped (checksum error), count"
vector 21 TimeSyncUEUE.FGS.dstt[0].clock timeChanged:vector ETV
attr interpolationmode linear
attr recordingmode vector
attr title "Clock time"
vector 22 TimeSyncUEUE.FGS.dstt[0].eth[0].clock timeChanged:vector ETV
attr interpolationmode linear
attr recordingmode vector
attr title "Clock time"
vector 23 TimeSyncUEUE.FGS.dstt[0].eth[0].macLayer.queue queueLength:vector ETV
attr autoWarmupFilter false
attr interpolationmode sample-hold
attr recordingmode vector
attr source "warmup(atomic(constant0(packetPushEnded) + count(packetPushStarted) - count(packetPulled) - count(packetRemoved) - count(packetDropped)))"
attr title "queue length"
attr unit pk
vector 24 TimeSyncUEUE.FGS.dstt[0].eth[0].macLayer.queue queueBitLength:vector ETV
attr autoWarmupFilter false
attr interpolationmode sample-hold
attr recordingmode vector
attr source "warmup(atomic(constant0(packetPushEnded) + sum(packetLength(packetPushStarted)) - sum(packetLength(packetPulled)) - sum(packetLength(packetRemoved)) - sum(packetLength(packetDropped))))"
attr title "queue bit length"
attr unit b
vector 25 TimeSyncUEUE.FGS.dstt[0].eth[0].phyLayer.interFrameGapInserter interpacketGap:vector ETV
attr interpolationmode sample-hold
attr recordingmode vector
attr source "count(interpacketGapStarted) - count(interpacketGapEnded)"
attr title "interpacket gap state"
attr type int
vector 26 TimeSyncUEUE.FGS.dstt[0].eth[0].phyLayer.transmitter transmitting:vector ETV
attr interpolationmode sample-hold
attr recordingmode vector
attr source "count(transmissionStarted) - count(transmissionEnded)"
attr title "transmitting state"
attr type int
vector 27 TimeSyncUEUE.FGS.dstt[0].tt[0].clock timeChanged:vector ETV
attr interpolationmode linear
attr recordingmode vector
attr title "Clock time"
vector 28 TimeSyncUEUE.FGS.dstt[0].tt[0].macLayer.queue queueLength:vector ETV
attr autoWarmupFilter false
attr interpolationmode sample-hold
attr recordingmode vector
attr source "warmup(atomic(constant0(packetPushEnded) + count(packetPushStarted) - count(packetPulled) - count(packetRemoved) - count(packetDropped)))"
attr title "queue length"
attr unit pk
vector 29 TimeSyncUEUE.FGS.dstt[0].tt[0].macLayer.queue queueBitLength:vector ETV
attr autoWarmupFilter false
attr interpolationmode sample-hold
attr recordingmode vector
attr source "warmup(atomic(constant0(packetPushEnded) + sum(packetLength(packetPushStarted)) - sum(packetLength(packetPulled)) - sum(packetLength(packetRemoved)) - sum(packetLength(packetDropped))))"
attr title "queue bit length"
attr unit b
vector 30 TimeSyncUEUE.FGS.dstt[0].tt[0].phyLayer.interFrameGapInserter interpacketGap:vector ETV
attr interpolationmode sample-hold
attr recordingmode vector
attr source "count(interpacketGapStarted) - count(interpacketGapEnded)"
attr title "interpacket gap state"
attr type int
vector 31 TimeSyncUEUE.FGS.dstt[0].tt[0].phyLayer.transmitter transmitting:vector ETV
attr interpolationmode sample-hold
attr recordingmode vector
attr source "count(transmissionStarted) - count(transmissionEnded)"
attr title "transmitting state"
attr type int
vector 32 TimeSyncUEUE.FGS.dstt[0].tt[1].clock timeChanged:vector ETV
attr interpolationmode linear
attr recordingmode vector
attr title "Clock time"
vector 33 TimeSyncUEUE.FGS.dstt[0].tt[1].macLayer.queue queueLength:vector ETV
attr autoWarmupFilter false
attr interpolationmode sample-hold
attr recordingmode vector
attr source "warmup(atomic(constant0(packetPushEnded) + count(packetPushStarted) - count(packetPulled) - count(packetRemoved) - count(packetDropped)))"
attr title "queue length"
attr unit pk
vector 34 TimeSyncUEUE.FGS.dstt[0].tt[1].macLayer.queue queueBitLength:vector ETV
attr autoWarmupFilter false
attr interpolationmode sample-hold
attr recordingmode vector
attr source "warmup(atomic(constant0(packetPushEnded) + sum(packetLength(packetPushStarted)) - sum(packetLength(packetPulled)) - sum(packetLength(packetRemoved)) - sum(packetLength(packetDropped))))"
attr title "queue bit length"
attr unit b
vector 35 TimeSyncUEUE.FGS.dstt[0].tt[1].phyLayer.interFrameGapInserter interpacketGap:vector ETV
attr interpolationmode sample-hold
attr recordingmode vector
attr source "count(interpacketGapStarted) - count(interpacketGapEnded)"
attr title "interpacket gap state"
attr type int
vector 36 TimeSyncUEUE.FGS.dstt[0].tt[1].phyLayer.transmitter transmitting:vector ETV
attr interpolationmode sample-hold
attr recordingmode vector
attr source "count(transmissionStarted) - count(transmissionEnded)"
attr title "transmitting state"
attr type int
vector 37 TimeSyncUEUE.FGS.dstt[1].clock timeChanged:vector ETV
attr interpolationmode linear
attr recordingmode vector
attr title "Clock time"
vector 38 TimeSyncUEUE.FGS.dstt[1].eth[0].clock timeChanged:vector ETV
attr interpolationmode linear
attr recordingmode vector
attr title "Clock time"
vector 39 TimeSyncUEUE.FGS.dstt[1].eth[0].macLayer.queue queueLength:vector ETV
attr autoWarmupFilter false
attr interpolationmode sample-hold
attr recordingmode vector
attr source "warmup(atomic(constant0(packetPushEnded) + count(packetPushStarted) - count(packetPulled) - count(packetRemoved) - count(packetDropped)))"
attr title "queue length"
attr unit pk
vector 40 TimeSyncUEUE.FGS.dstt[1].eth[0].macLayer.queue queueBitLength:vector ETV
attr autoWarmupFilter false
attr interpolationmode sample-hold
attr recordingmode vector
attr source "warmup(atomic(constant0(packetPushEnded) + sum(packetLength(packetPushStarted)) - sum(packetLength(packetPulled)) - sum(packetLength(packetRemoved)) - sum(packetLength(packetDropped))))"
attr title "queue bit length"
attr unit b
vector 41 TimeSyncUEUE.FGS.dstt[1].eth[0].phyLayer.interFrameGapInserter interpacketGap:vector ETV
attr interpolationmode sample-hold
attr recordingmode vector
attr source "count(interpacketGapStarted) - count(interpacketGapEnded)"
attr title "interpacket gap state"
attr type int
vector 42 TimeSyncUEUE.FGS.dstt[1].eth[0].phyLayer.transmitter transmitting:vector ETV
attr interpolationmode sample-hold
attr recordingmode vector
attr source "count(transmissionStarted) - count(transmissionEnded)"
attr title "transmitting state"
attr type int
vector 43 TimeSyncUEUE.FGS.dstt[1].tt[0].clock timeChanged:vector ETV
attr interpolationmode linear
attr recordingmode vector
attr title "Clock time"
vector 44 TimeSyncUEUE.FGS.dstt[1].tt[0].macLayer.queue queueLength:vector ETV
attr autoWarmupFilter false
attr interpolationmode sample-hold
attr recordingmode vector
attr source "warmup(atomic(constant0(packetPushEnded) + count(packetPushStarted) - count(packetPulled) - count(packetRemoved) - count(packetDropped)))"
attr title "queue length"
attr unit pk
vector 45 TimeSyncUEUE.FGS.dstt[1].tt[0].macLayer.queue queueBitLength:vector ETV
attr autoWarmupFilter false
attr interpolationmode sample-hold
attr recordingmode vector
attr source "warmup(atomic(constant0(packetPushEnded) + sum(packetLength(packetPushStarted)) - sum(packetLength(packetPulled)) - sum(packetLength(packetRemoved)) - sum(packetLength(packetDropped))))"
attr title "queue bit length"
attr unit b
vector 46 TimeSyncUEUE.FGS.dstt[1].tt[0].phyLayer.interFrameGapInserter interpacketGap:vector ETV
attr interpolationmode sample-hold
attr recordingmode vector
attr source "count(interpacketGapStarted) - count(interpacketGapEnded)"
attr title "interpacket gap state"
attr type int
vector 47 TimeSyncUEUE.FGS.dstt[1].tt[0].phyLayer.transmitter transmitting:vector ETV
attr interpolationmode sample-hold
attr recordingmode vector
attr source "count(transmissionStarted) - count(transmissionEnded)"
attr title "transmitting state"
attr type int
vector 48 TimeSyncUEUE.FGS.dstt[1].tt[1].clock timeChanged:vector ETV
attr interpolationmode linear
attr recordingmode vector
attr title "Clock time"
vector 49 TimeSyncUEUE.FGS.dstt[1].tt[1].macLayer.queue queueLength:vector ETV
attr autoWarmupFilter false
attr interpolationmode sample-hold
attr recordingmode vector
attr source "warmup(atomic(constant0(packetPushEnded) + count(packetPushStarted) - count(packetPulled) - count(packetRemoved) - count(packetDropped)))"
attr title "queue length"
attr unit pk
vector 50 TimeSyncUEUE.FGS.dstt[1].tt[1].macLayer.queue queueBitLength:vector ETV
attr autoWarmupFilter false
attr interpolationmode sample-hold
attr recordingmode vector
attr source "warmup(atomic(constant0(packetPushEnded) + sum(packetLength(packetPushStarted)) - sum(packetLength(packetPulled)) - sum(packetLength(packetRemoved)) - sum(packetLength(packetDropped))))"
attr title "queue bit length"
attr unit b
vector 51 TimeSyncUEUE.FGS.dstt[1].tt[1].phyLayer.interFrameGapInserter interpacketGap:vector ETV
attr interpolationmode sample-hold
attr recordingmode vector
attr source "count(interpacketGapStarted) - count(interpacketGapEnded)"
attr title "interpacket gap state"
attr type int
vector 52 TimeSyncUEUE.FGS.dstt[1].tt[1].phyLayer.transmitter transmitting:vector ETV
attr interpolationmode sample-hold
attr recordingmode vector
attr source "count(transmissionStarted) - count(transmissionEnded)"
attr title "transmitting state"
attr type int
vector 53 TimeSyncUEUE.FGS.nwtt[0].clock timeChanged:vector ETV
attr interpolationmode linear
attr recordingmode vector
attr title "Clock time"
vector 54 TimeSyncUEUE.FGS.nwtt[0].eth[0].clock timeChanged:vector ETV
attr interpolationmode linear
attr recordingmode vector
attr title "Clock time"
vector 55 TimeSyncUEUE.FGS.nwtt[0].eth[0].macLayer.queue queueLength:vector ETV
attr autoWarmupFilter false
attr interpolationmode sample-hold
attr recordingmode vector
attr source "warmup(atomic(constant0(packetPushEnded) + count(packetPushStarted) - count(packetPulled) - count(packetRemoved) - count(packetDropped)))"
attr title "queue length"
attr unit pk
vector 56 TimeSyncUEUE.FGS.nwtt[0].eth[0].macLayer.queue queueBitLength:vector ETV
attr autoWarmupFilter false
attr interpolationmode sample-hold
attr recordingmode vector
attr source "warmup(atomic(constant0(packetPushEnded) + sum(packetLength(packetPushStarted)) - sum(packetLength(packetPulled)) - sum(packetLength(packetRemoved)) - sum(packetLength(packetDropped))))"
attr title "queue bit length"
attr unit b
vector 57 TimeSyncUEUE.FGS.nwtt[0].eth[0].phyLayer.interFrameGapInserter interpacketGap:vector ETV
attr interpolationmode sample-hold
attr recordingmode vector
attr source "count(interpacketGapStarted) - count(interpacketGapEnded)"
attr title "interpacket gap state"
attr type int
vector 58 TimeSyncUEUE.FGS.nwtt[0].eth[0].phyLayer.transmitter transmitting:vector ETV
attr interpolationmode sample-hold
attr recordingmode vector
attr source "count(transmissionStarted) - count(transmissionEnded)"
attr title "transmitting state"
attr type int
vector 59 TimeSyncUEUE.FGS.nwtt[0].tt[0].clock timeChanged:vector ETV
attr interpolationmode linear
attr recordingmode vector
attr title "Clock time"
vector 60 TimeSyncUEUE.FGS.nwtt[0].tt[0].macLayer.queue queueLength:vector ETV
attr autoWarmupFilter false
attr interpolationmode sample-hold
attr recordingmode vector
attr source "warmup(atomic(constant0(packetPushEnded) + count(packetPushStarted) - count(packetPulled) - count(packetRemoved) - count(packetDropped)))"
attr title "queue length"
attr unit pk
vector 61 TimeSyncUEUE.FGS.nwtt[0].tt[0].macLayer.queue queueBitLength:vector ETV
attr autoWarmupFilter false
attr interpolationmode sample-hold
attr recordingmode vector
attr source "warmup(atomic(constant0(packetPushEnded) + sum(packetLength(packetPushStarted)) - sum(packetLength(packetPulled)) - sum(packetLength(packetRemoved)) - sum(packetLength(packetDropped))))"
attr title "queue bit length"
attr unit b
vector 62 TimeSyncUEUE.FGS.nwtt[0].tt[0].phyLayer.interFrameGapInserter interpacketGap:vector ETV
attr interpolationmode sample-hold
attr recordingmode vector
attr source "count(interpacketGapStarted) - count(interpacketGapEnded)"
attr title "interpacket gap state"
attr type int
vector 63 TimeSyncUEUE.FGS.nwtt[0].tt[0].phyLayer.transmitter transmitting:vector ETV
attr interpolationmode sample-hold
attr recordingmode vector
attr source "count(transmissionStarted) - count(transmissionEnded)"
attr title "transmitting state"
attr type int
vector 64 TimeSyncUEUE.FGS.nwtt[0].tt[1].clock timeChanged:vector ETV
attr interpolationmode linear
attr recordingmode vector
attr title "Clock time"
vector 65 TimeSyncUEUE.FGS.nwtt[0].tt[1].macLayer.queue queueLength:vector ETV
attr autoWarmupFilter false
attr interpolationmode sample-hold
attr recordingmode vector
attr source "warmup(atomic(constant0(packetPushEnded) + count(packetPushStarted) - count(packetPulled) - count(packetRemoved) - count(packetDropped)))"
attr title "queue length"
attr unit pk
vector 66 TimeSyncUEUE.FGS.nwtt[0].tt[1].macLayer.queue queueBitLength:vector ETV
attr autoWarmupFilter false
attr interpolationmode sample-hold
attr recordingmode vector
attr source "warmup(atomic(constant0(packetPushEnded) + sum(packetLength(packetPushStarted)) - sum(packetLength(packetPulled)) - sum(packetLength(packetRemoved)) - sum(packetLength(packetDropped))))"
attr title "queue bit length"
attr unit b
vector 67 TimeSyncUEUE.FGS.nwtt[0].tt[1].phyLayer.interFrameGapInserter interpacketGap:vector ETV
attr interpolationmode sample-hold
attr recordingmode vector
attr source "count(interpacketGapStarted) - count(interpacketGapEnded)"
attr title "interpacket gap state"
attr type int
vector 68 TimeSyncUEUE.FGS.nwtt[0].tt[1].phyLayer.transmitter transmitting:vector ETV
attr interpolationmode sample-hold
attr recordingmode vector
attr source "count(transmissionStarted) - count(transmissionEnded)"
attr title "transmitting state"
attr type int
vector 69 TimeSyncUEUE.TsnSwitchDomain1.clock timeChanged:vector ETV
attr interpolationmode linear
attr recordingmode vector
attr title "Clock time"
vector 70 TimeSyncUEUE.TsnSwitchDomain2.clock timeChanged:vector ETV
attr interpolationmode linear
attr recordingmode vector
attr title "Clock time"
vector 71 TimeSyncUEUE.TsnSwitchDataNetwork.clock timeChanged:vector ETV
attr interpolationmode linear
attr recordingmode vector
attr title "Clock time"
vector 72 TimeSyncUEUE.TsnSwitchDomain2.ethernet.macHeaderInserter incomingPacketLengths:vector ETV
attr interpolationmode none
attr recordingmode vector
attr source "packetLength(merge(packetPushedIn, packetPulledIn))"
attr title "incoming packet lengths"
attr unit b
vector 73 TimeSyncUEUE.TsnSwitchDomain2.ethernet.macHeaderInserter outgoingPacketLengths:vector ETV
attr interpolationmode none
attr recordingmode vector
attr source "packetLength(merge(packetPushedOut, packetPulledOut))"
attr title "outgoing packet lengths"
attr unit b
vector 74 TimeSyncUEUE.TsnSwitchDomain2.ethernet.paddingInserter incomingPacketLengths:vector ETV
attr interpolationmode none
attr recordingmode vector
attr source "packetLength(merge(packetPushedIn, packetPulledIn))"
attr title "incoming packet lengths"
attr unit b
vector 75 TimeSyncUEUE.TsnSwitchDomain2.ethernet.paddingInserter outgoingPacketLengths:vector ETV
attr interpolationmode none
attr recordingmode vector
attr source "packetLength(merge(packetPushedOut, packetPulledOut))"
attr title "outgoing packet lengths"
attr unit b
vector 76 TimeSyncUEUE.TsnSwitchDomain2.ethernet.fcsInserter incomingPacketLengths:vector ETV
attr interpolationmode none
attr recordingmode vector
attr source "packetLength(merge(packetPushedIn, packetPulledIn))"
attr title "incoming packet lengths"
attr unit b
vector 77 TimeSyncUEUE.TsnSwitchDomain2.ethernet.fcsInserter outgoingPacketLengths:vector ETV
attr interpolationmode none
attr recordingmode vector
attr source "packetLength(merge(packetPushedOut, packetPulledOut))"
attr title "outgoing packet lengths"
attr unit b
vector 78 TimeSyncUEUE.TsnSwitchDomain2.eth[0].macLayer.queue incomingPacketLengths:vector ETV
attr interpolationmode none
attr recordingmode vector
attr source packetLength(packetPushStarted)
attr title "incoming packet lengths"
attr unit b
vector 79 TimeSyncUEUE.TsnSwitchDataNetwork.ethernet.macHeaderInserter incomingPacketLengths:vector ETV
attr interpolationmode none
attr recordingmode vector
attr source "packetLength(merge(packetPushedIn, packetPulledIn))"
attr title "incoming packet lengths"
attr unit b
vector 80 TimeSyncUEUE.TsnSwitchDataNetwork.ethernet.macHeaderInserter outgoingPacketLengths:vector ETV
attr interpolationmode none
attr recordingmode vector
attr source "packetLength(merge(packetPushedOut, packetPulledOut))"
attr title "outgoing packet lengths"
attr unit b
vector 81 TimeSyncUEUE.TsnSwitchDataNetwork.ethernet.paddingInserter incomingPacketLengths:vector ETV
attr interpolationmode none
attr recordingmode vector
attr source "packetLength(merge(packetPushedIn, packetPulledIn))"
attr title "incoming packet lengths"
attr unit b
vector 82 TimeSyncUEUE.TsnSwitchDataNetwork.ethernet.paddingInserter outgoingPacketLengths:vector ETV
attr interpolationmode none
attr recordingmode vector
attr source "packetLength(merge(packetPushedOut, packetPulledOut))"
attr title "outgoing packet lengths"
attr unit b
vector 83 TimeSyncUEUE.TsnSwitchDataNetwork.ethernet.fcsInserter incomingPacketLengths:vector ETV
attr interpolationmode none
attr recordingmode vector
attr source "packetLength(merge(packetPushedIn, packetPulledIn))"
attr title "incoming packet lengths"
attr unit b
vector 84 TimeSyncUEUE.TsnSwitchDataNetwork.ethernet.fcsInserter outgoingPacketLengths:vector ETV
attr interpolationmode none
attr recordingmode vector
attr source "packetLength(merge(packetPushedOut, packetPulledOut))"
attr title "outgoing packet lengths"
attr unit b
vector 85 TimeSyncUEUE.TsnSwitchDataNetwork.eth[0].macLayer.queue incomingPacketLengths:vector ETV
attr interpolationmode none
attr recordingmode vector
attr source packetLength(packetPushStarted)
attr title "incoming packet lengths"
attr unit b
vector 86 TimeSyncUEUE.FGS.dstt[0].bridging.streamCoder.encoder incomingPacketLengths:vector ETV
attr interpolationmode none
attr recordingmode vector
attr source "packetLength(merge(packetPushedIn, packetPulledIn))"
attr title "incoming packet lengths"
attr unit b
vector 87 TimeSyncUEUE.FGS.dstt[0].bridging.streamCoder.encoder outgoingPacketLengths:vector ETV
attr interpolationmode none
attr recordingmode vector
attr source "packetLength(merge(packetPushedOut, packetPulledOut))"
attr title "outgoing packet lengths"
attr unit b
vector 88 TimeSyncUEUE.TsnSwitchDomain2.eth[0].macLayer.queue queueingTime:vector ETV
attr interpolationmode none
attr recordingmode vector
attr source queueingTime(packetPulled)
attr title "queueing times"
attr unit s
vector 89 TimeSyncUEUE.TsnSwitchDomain2.eth[0].macLayer.queue outgoingPacketLengths:vector ETV
attr interpolationmode none
attr recordingmode vector
attr source packetLength(packetPulled)
attr title "outgoing packet lengths"
attr unit b
vector 90 TimeSyncUEUE.TsnSwitchDomain2.eth[0].macLayer.server incomingPacketLengths:vector ETV
attr interpolationmode none
attr recordingmode vector
attr source packetLength(packetPulled)
attr title "incoming packet lengths"
attr unit b
vector 91 TimeSyncUEUE.TsnSwitchDomain2.eth[0].macLayer.server outgoingPacketLengths:vector ETV
attr interpolationmode none
attr recordingmode vector
attr source packetLength(packetPushed)
attr title "outgoing packet lengths"
attr unit b
vector 92 TimeSyncUEUE.TsnSwitchDomain2.eth[0].macLayer.outboundEmitter incomingPacketLengths:vector ETV
attr interpolationmode none
attr recordingmode vector
attr source "packetLength(merge(packetPushedIn, packetPulledIn))"
attr title "incoming packet lengths"
attr unit b
vector 93 TimeSyncUEUE.TsnSwitchDomain2.eth[0].macLayer.outboundEmitter outgoingPacketLengths:vector ETV
attr interpolationmode none
attr recordingmode vector
attr source "packetLength(merge(packetPushedOut, packetPulledOut))"
attr title "outgoing packet lengths"
attr unit b
vector 94 TimeSyncUEUE.TsnSwitchDomain2.eth[0].phyLayer.phyHeaderInserter incomingPacketLengths:vector ETV
attr interpolationmode none
attr recordingmode vector
attr source "packetLength(merge(packetPushedIn, packetPulledIn))"
attr title "incoming packet lengths"
attr unit b
vector 95 TimeSyncUEUE.TsnSwitchDomain2.eth[0].phyLayer.phyHeaderInserter outgoingPacketLengths:vector ETV
attr interpolationmode none
attr recordingmode vector
attr source "packetLength(merge(packetPushedOut, packetPulledOut))"
attr title "outgoing packet lengths"
attr unit b
vector 96 TimeSyncUEUE.TsnSwitchDomain2.eth[0].phyLayer.outboundEmitter incomingPacketLengths:vector ETV
attr interpolationmode none
attr recordingmode vector
attr source "packetLength(merge(packetPushedIn, packetPulledIn))"
attr title "incoming packet lengths"
attr unit b
vector 97 TimeSyncUEUE.TsnSwitchDomain2.eth[0].phyLayer.outboundEmitter outgoingPacketLengths:vector ETV
attr interpolationmode none
attr recordingmode vector
attr source "packetLength(merge(packetPushedOut, packetPulledOut))"
attr title "outgoing packet lengths"
attr unit b
vector 98 TimeSyncUEUE.TsnSwitchDataNetwork.eth[0].macLayer.queue queueingTime:vector ETV
attr interpolationmode none
attr recordingmode vector
attr source queueingTime(packetPulled)
attr title "queueing times"
attr unit s
vector 99 TimeSyncUEUE.TsnSwitchDataNetwork.eth[0].macLayer.queue outgoingPacketLengths:vector ETV
attr interpolationmode none
attr recordingmode vector
attr source packetLength(packetPulled)
attr title "outgoing packet lengths"
attr unit b
vector 100 TimeSyncUEUE.TsnSwitchDataNetwork.eth[0].macLayer.server incomingPacketLengths:vector ETV
attr interpolationmode none
attr recordingmode vector
attr source packetLength(packetPulled)
attr title "incoming packet lengths"
attr unit b
vector 101 TimeSyncUEUE.TsnSwitchDataNetwork.eth[0].macLayer.server outgoingPacketLengths:vector ETV
attr interpolationmode none
attr recordingmode vector
attr source packetLength(packetPushed)
attr title "outgoing packet lengths"
attr unit b
vector 102 TimeSyncUEUE.TsnSwitchDataNetwork.eth[0].macLayer.outboundEmitter incomingPacketLengths:vector ETV
attr interpolationmode none
attr recordingmode vector
attr source "packetLength(merge(packetPushedIn, packetPulledIn))"
attr title "incoming packet lengths"
attr unit b
vector 103 TimeSyncUEUE.TsnSwitchDataNetwork.eth[0].macLayer.outboundEmitter outgoingPacketLengths:vector ETV
attr interpolationmode none
attr recordingmode vector
attr source "packetLength(merge(packetPushedOut, packetPulledOut))"
attr title "outgoing packet lengths"
attr unit b
vector 104 TimeSyncUEUE.TsnSwitchDataNetwork.eth[0].phyLayer.phyHeaderInserter incomingPacketLengths:vector ETV
attr interpolationmode none
attr recordingmode vector
attr source "packetLength(merge(packetPushedIn, packetPulledIn))"
attr title "incoming packet lengths"
attr unit b
vector 105 TimeSyncUEUE.TsnSwitchDataNetwork.eth[0].phyLayer.phyHeaderInserter outgoingPacketLengths:vector ETV
attr interpolationmode none
attr recordingmode vector
attr source "packetLength(merge(packetPushedOut, packetPulledOut))"
attr title "outgoing packet lengths"
attr unit b
vector 106 TimeSyncUEUE.TsnSwitchDataNetwork.eth[0].phyLayer.outboundEmitter incomingPacketLengths:vector ETV
attr interpolationmode none
attr recordingmode vector
attr source "packetLength(merge(packetPushedIn, packetPulledIn))"
attr title "incoming packet lengths"
attr unit b
vector 107 TimeSyncUEUE.TsnSwitchDataNetwork.eth[0].phyLayer.outboundEmitter outgoingPacketLengths:vector ETV
attr interpolationmode none
attr recordingmode vector
attr source "packetLength(merge(packetPushedOut, packetPulledOut))"
attr title "outgoing packet lengths"
attr unit b
vector 108 TimeSyncUEUE.FGS.dstt[0].ethernet.macHeaderInserter incomingPacketLengths:vector ETV
attr interpolationmode none
attr recordingmode vector
attr source "packetLength(merge(packetPushedIn, packetPulledIn))"
attr title "incoming packet lengths"
attr unit b
vector 109 TimeSyncUEUE.FGS.dstt[0].ethernet.macHeaderInserter outgoingPacketLengths:vector ETV
attr interpolationmode none
attr recordingmode vector
attr source "packetLength(merge(packetPushedOut, packetPulledOut))"
attr title "outgoing packet lengths"
attr unit b
vector 110 TimeSyncUEUE.FGS.dstt[0].ethernet.paddingInserter incomingPacketLengths:vector ETV
attr interpolationmode none
attr recordingmode vector
attr source "packetLength(merge(packetPushedIn, packetPulledIn))"
attr title "incoming packet lengths"
attr unit b
vector 111 TimeSyncUEUE.FGS.dstt[0].ethernet.paddingInserter outgoingPacketLengths:vector ETV
attr interpolationmode none
attr recordingmode vector
attr source "packetLength(merge(packetPushedOut, packetPulledOut))"
attr title "outgoing packet lengths"
attr unit b
vector 112 TimeSyncUEUE.FGS.dstt[0].ethernet.fcsInserter incomingPacketLengths:vector ETV
attr interpolationmode none
attr recordingmode vector
attr source "packetLength(merge(packetPushedIn, packetPulledIn))"
attr title "incoming packet lengths"
attr unit b
vector 113 TimeSyncUEUE.FGS.dstt[0].ethernet.fcsInserter outgoingPacketLengths:vector ETV
attr interpolationmode none
attr recordingmode vector
attr source "packetLength(merge(packetPushedOut, packetPulledOut))"
attr title "outgoing packet lengths"
attr unit b
vector 114 TimeSyncUEUE.FGS.dstt[0].eth[0].macLayer.queue incomingPacketLengths:vector ETV
attr interpolationmode none
attr recordingmode vector
attr source packetLength(packetPushStarted)
attr title "incoming packet lengths"
attr unit b
vector 115 TimeSyncUEUE.FGS.dstt[0].eth[0].macLayer.queue queueingTime:vector ETV
attr interpolationmode none
attr recordingmode vector
attr source queueingTime(packetPulled)
attr title "queueing times"
attr unit s
vector 116 TimeSyncUEUE.FGS.dstt[0].eth[0].macLayer.queue outgoingPacketLengths:vector ETV
attr interpolationmode none
attr recordingmode vector
attr source packetLength(packetPulled)
attr title "outgoing packet lengths"
attr unit b
vector 117 TimeSyncUEUE.FGS.dstt[0].eth[0].macLayer.server incomingPacketLengths:vector ETV
attr interpolationmode none
attr recordingmode vector
attr source packetLength(packetPulled)
attr title "incoming packet lengths"
attr unit b
vector 118 TimeSyncUEUE.FGS.dstt[0].eth[0].macLayer.server outgoingPacketLengths:vector ETV
attr interpolationmode none
attr recordingmode vector
attr source packetLength(packetPushed)
attr title "outgoing packet lengths"
attr unit b
vector 119 TimeSyncUEUE.FGS.dstt[0].eth[0].macLayer.outboundEmitter incomingPacketLengths:vector ETV
attr interpolationmode none
attr recordingmode vector
attr source "packetLength(merge(packetPushedIn, packetPulledIn))"
attr title "incoming packet lengths"
attr unit b
vector 120 TimeSyncUEUE.FGS.dstt[0].eth[0].macLayer.outboundEmitter outgoingPacketLengths:vector ETV
attr interpolationmode none
attr recordingmode vector
attr source "packetLength(merge(packetPushedOut, packetPulledOut))"
attr title "outgoing packet lengths"
attr unit b
vector 121 TimeSyncUEUE.FGS.dstt[0].eth[0].phyLayer.phyHeaderInserter incomingPacketLengths:vector ETV
attr interpolationmode none
attr recordingmode vector
attr source "packetLength(merge(packetPushedIn, packetPulledIn))"
attr title "incoming packet lengths"
attr unit b
vector 122 TimeSyncUEUE.FGS.dstt[0].eth[0].phyLayer.phyHeaderInserter outgoingPacketLengths:vector ETV
attr interpolationmode none
attr recordingmode vector
attr source "packetLength(merge(packetPushedOut, packetPulledOut))"
attr title "outgoing packet lengths"
attr unit b
vector 123 TimeSyncUEUE.FGS.dstt[0].eth[0].phyLayer.outboundEmitter incomingPacketLengths:vector ETV
attr interpolationmode none
attr recordingmode vector
attr source "packetLength(merge(packetPushedIn, packetPulledIn))"
attr title "incoming packet lengths"
attr unit b
vector 124 TimeSyncUEUE.FGS.dstt[0].eth[0].phyLayer.outboundEmitter outgoingPacketLengths:vector ETV
attr interpolationmode none
attr recordingmode vector
attr source "packetLength(merge(packetPushedOut, packetPulledOut))"
attr title "outgoing packet lengths"
attr unit b
vector 125 TimeSyncUEUE.TsnSwitchDomain2.eth[0].phyLayer.transmitter transmissionTime:vector ETV
attr interpolationmode none
attr recordingmode vector
attr source packetDuration(transmissionEnded)
attr title "transmission time"
attr unit s
vector 126 TimeSyncUEUE.TsnSwitchDataNetwork.eth[0].phyLayer.transmitter transmissionTime:vector ETV
attr interpolationmode none
attr recordingmode vector
attr source packetDuration(transmissionEnded)
attr title "transmission time"
attr unit s
vector 127 TimeSyncUEUE.FGS.dstt[0].eth[0].phyLayer.transmitter transmissionTime:vector ETV
attr interpolationmode none
attr recordingmode vector
attr source packetDuration(transmissionEnded)
attr title "transmission time"
attr unit s
vector 128 TimeSyncUEUE.FGS.dstt[1].eth[0].phyLayer.receiver receptionTime:vector ETV
attr interpolationmode none
attr recordingmode vector
attr source packetDuration(receptionEnded)
attr title "reception time"
attr unit s
vector 129 TimeSyncUEUE.FGS.dstt[1].eth[0].phyLayer.inboundEmitter incomingPacketLengths:vector ETV
attr interpolationmode none
attr recordingmode vector
attr source "packetLength(merge(packetPushedIn, packetPulledIn))"
attr title "incoming packet lengths"
attr unit b
vector 130 TimeSyncUEUE.FGS.dstt[1].eth[0].phyLayer.inboundEmitter outgoingPacketLengths:vector ETV
attr interpolationmode none
attr recordingmode vector
attr source "packetLength(merge(packetPushedOut, packetPulledOut))"
attr title "outgoing packet lengths"
attr unit b
vector 131 TimeSyncUEUE.FGS.dstt[1].eth[0].phyLayer.phyHeaderChecker incomingPacketLengths:vector ETV
attr interpolationmode none
attr recordingmode vector
attr source "packetLength(merge(packetPushedIn, packetPulledIn))"
attr title "incoming packet lengths"
attr unit b
vector 132 TimeSyncUEUE.FGS.dstt[1].eth[0].phyLayer.phyHeaderChecker outgoingPacketLengths:vector ETV
attr interpolationmode none
attr recordingmode vector
attr source "packetLength(merge(packetPushedOut, packetPulledOut))"
attr title "outgoing packet lengths"
attr unit b
vector 133 TimeSyncUEUE.FGS.dstt[1].eth[0].macLayer.inboundEmitter incomingPacketLengths:vector ETV
attr interpolationmode none
attr recordingmode vector
attr source "packetLength(merge(packetPushedIn, packetPulledIn))"
attr title "incoming packet lengths"
attr unit b
vector 134 TimeSyncUEUE.FGS.dstt[1].eth[0].macLayer.inboundEmitter outgoingPacketLengths:vector ETV
attr interpolationmode none
attr recordingmode vector
attr source "packetLength(merge(packetPushedOut, packetPulledOut))"
attr title "outgoing packet lengths"
attr unit b
vector 135 TimeSyncUEUE.FGS.dstt[1].eth[0].macLayer.fcsChecker incomingPacketLengths:vector ETV
attr interpolationmode none
attr recordingmode vector
attr source "packetLength(merge(packetPushedIn, packetPulledIn))"
attr title "incoming packet lengths"
attr unit b
vector 136 TimeSyncUEUE.FGS.dstt[1].eth[0].macLayer.fcsChecker outgoingPacketLengths:vector ETV
attr interpolationmode none
attr recordingmode vector
attr source "packetLength(merge(packetPushedOut, packetPulledOut))"
attr title "outgoing packet lengths"
attr unit b
vector 137 TimeSyncUEUE.FGS.dstt[1].ethernet.fcsChecker incomingPacketLengths:vector ETV
attr interpolationmode none
attr recordingmode vector
attr source "packetLength(merge(packetPushedIn, packetPulledIn))"
attr title "incoming packet lengths"
attr unit b
vector 138 TimeSyncUEUE.FGS.dstt[1].ethernet.fcsChecker outgoingPacketLengths:vector ETV
attr interpolationmode none
attr recordingmode vector
attr source "packetLength(merge(packetPushedOut, packetPulledOut))"
attr title "outgoing packet lengths"
attr unit b
vector 139 TimeSyncUEUE.FGS.dstt[1].ethernet.macHeaderChecker incomingPacketLengths:vector ETV
attr interpolationmode none
attr recordingmode vector
attr source "packetLength(merge(packetPushedIn, packetPulledIn))"
attr title "incoming packet lengths"
attr unit b
vector 140 TimeSyncUEUE.FGS.dstt[1].ethernet.macHeaderChecker outgoingPacketLengths:vector ETV
attr interpolationmode none
attr recordingmode vector
attr source "packetLength(merge(packetPushedOut, packetPulledOut))"
attr title "outgoing packet lengths"
attr unit b
vector 141 TimeSyncUEUE.FGS.dstt[1].bridging.interfaceRelay.learner incomingPacketLengths:vector ETV
attr interpolationmode none
attr recordingmode vector
attr source "packetLength(merge(packetPushedIn, packetPulledIn))"
attr title "incoming packet lengths"
attr unit b
vector 142 TimeSyncUEUE.FGS.dstt[1].bridging.interfaceRelay.learner outgoingPacketLengths:vector ETV
attr interpolationmode none
attr recordingmode vector
attr source "packetLength(merge(packetPushedOut, packetPulledOut))"
attr title "outgoing packet lengths"
attr unit b
vector 143 TimeSyncUEUE.FGS.dstt[1].bridging.streamCoder.decoder incomingPacketLengths:vector ETV
attr interpolationmode none
attr recordingmode vector
attr source "packetLength(merge(packetPushedIn, packetPulledIn))"
attr title "incoming packet lengths"
attr unit b
vector 144 TimeSyncUEUE.FGS.dstt[1].bridging.streamCoder.decoder outgoingPacketLengths:vector ETV
attr interpolationmode none
attr recordingmode vector
attr source "packetLength(merge(packetPushedOut, packetPulledOut))"
attr title "outgoing packet lengths"
attr unit b
vector 145 TimeSyncUEUE.FGS.dstt[1].gptp.classifier packetLengths:vector ETV
attr interpolationmode none
attr recordingmode vector
attr source packetLength(packetPushed)
attr title "packet lengths"
attr unit b
vector 146 TimeSyncUEUE.FGS.nwtt[0].eth[0].phyLayer.receiver receptionTime:vector ETV
attr interpolationmode none
attr recordingmode vector
attr source packetDuration(receptionEnded)
attr title "reception time"
attr unit s
vector 147 TimeSyncUEUE.FGS.nwtt[0].eth[0].phyLayer.inboundEmitter incomingPacketLengths:vector ETV
attr interpolationmode none
attr recordingmode vector
attr source "packetLength(merge(packetPushedIn, packetPulledIn))"
attr title "incoming packet lengths"
attr unit b
vector 148 TimeSyncUEUE.FGS.nwtt[0].eth[0].phyLayer.inboundEmitter outgoingPacketLengths:vector ETV
attr interpolationmode none
attr recordingmode vector
attr source "packetLength(merge(packetPushedOut, packetPulledOut))"
attr title "outgoing packet lengths"
attr unit b
vector 149 TimeSyncUEUE.FGS.nwtt[0].eth[0].phyLayer.phyHeaderChecker incomingPacketLengths:vector ETV
attr interpolationmode none
attr recordingmode vector
attr source "packetLength(merge(packetPushedIn, packetPulledIn))"
attr title "incoming packet lengths"
attr unit b
vector 150 TimeSyncUEUE.FGS.nwtt[0].eth[0].phyLayer.phyHeaderChecker outgoingPacketLengths:vector ETV
attr interpolationmode none
attr recordingmode vector
attr source "packetLength(merge(packetPushedOut, packetPulledOut))"
attr title "outgoing packet lengths"
attr unit b
vector 151 TimeSyncUEUE.FGS.nwtt[0].eth[0].macLayer.inboundEmitter incomingPacketLengths:vector ETV
attr interpolationmode none
attr recordingmode vector
attr source "packetLength(merge(packetPushedIn, packetPulledIn))"
attr title "incoming packet lengths"
attr unit b
vector 152 TimeSyncUEUE.FGS.nwtt[0].eth[0].macLayer.inboundEmitter outgoingPacketLengths:vector ETV
attr interpolationmode none
attr recordingmode vector
attr source "packetLength(merge(packetPushedOut, packetPulledOut))"
attr title "outgoing packet lengths"
attr unit b
vector 153 TimeSyncUEUE.FGS.nwtt[0].eth[0].macLayer.fcsChecker incomingPacketLengths:vector ETV
attr interpolationmode none
attr recordingmode vector
attr source "packetLength(merge(packetPushedIn, packetPulledIn))"
attr title "incoming packet lengths"
attr unit b
vector 154 TimeSyncUEUE.FGS.nwtt[0].eth[0].macLayer.fcsChecker outgoingPacketLengths:vector ETV
attr interpolationmode none
attr recordingmode vector
attr source "packetLength(merge(packetPushedOut, packetPulledOut))"
attr title "outgoing packet lengths"
attr unit b
vector 155 TimeSyncUEUE.FGS.nwtt[0].ethernet.fcsChecker incomingPacketLengths:vector ETV
attr interpolationmode none
attr recordingmode vector
attr source "packetLength(merge(packetPushedIn, packetPulledIn))"
attr title "incoming packet lengths"
attr unit b
vector 156 TimeSyncUEUE.FGS.nwtt[0].ethernet.fcsChecker outgoingPacketLengths:vector ETV
attr interpolationmode none
attr recordingmode vector
attr source "packetLength(merge(packetPushedOut, packetPulledOut))"
attr title "outgoing packet lengths"
attr unit b
vector 157 TimeSyncUEUE.FGS.nwtt[0].ethernet.macHeaderChecker incomingPacketLengths:vector ETV
attr interpolationmode none
attr recordingmode vector
attr source "packetLength(merge(packetPushedIn, packetPulledIn))"
attr title "incoming packet lengths"
attr unit b
vector 158 TimeSyncUEUE.FGS.nwtt[0].ethernet.macHeaderChecker outgoingPacketLengths:vector ETV
attr interpolationmode none
attr recordingmode vector
attr source "packetLength(merge(packetPushedOut, packetPulledOut))"
attr title "outgoing packet lengths"
attr unit b
vector 159 TimeSyncUEUE.FGS.nwtt[0].bridging.interfaceRelay.learner incomingPacketLengths:vector ETV
attr interpolationmode none
attr recordingmode vector
attr source "packetLength(merge(packetPushedIn, packetPulledIn))"
attr title "incoming packet lengths"
attr unit b
vector 160 TimeSyncUEUE.FGS.nwtt[0].bridging.interfaceRelay.learner outgoingPacketLengths:vector ETV
attr interpolationmode none
attr recordingmode vector
attr source "packetLength(merge(packetPushedOut, packetPulledOut))"
attr title "outgoing packet lengths"
attr unit b
vector 161 TimeSyncUEUE.FGS.nwtt[0].bridging.streamCoder.decoder incomingPacketLengths:vector ETV
attr interpolationmode none
attr recordingmode vector
attr source "packetLength(merge(packetPushedIn, packetPulledIn))"
attr title "incoming packet lengths"
attr unit b
vector 162 TimeSyncUEUE.FGS.nwtt[0].bridging.streamCoder.decoder outgoingPacketLengths:vector ETV
attr interpolationmode none
attr recordingmode vector
attr source "packetLength(merge(packetPushedOut, packetPulledOut))"
attr title "outgoing packet lengths"
attr unit b
vector 163 TimeSyncUEUE.FGS.nwtt[0].gptp.classifier packetLengths:vector ETV
attr interpolationmode none
attr recordingmode vector
attr source packetLength(packetPushed)
attr title "packet lengths"
attr unit b
vector 164 TimeSyncUEUE.TsnSwitchDomain1.eth[0].phyLayer.receiver receptionTime:vector ETV
attr interpolationmode none
attr recordingmode vector
attr source packetDuration(receptionEnded)
attr title "reception time"
attr unit s
vector 165 TimeSyncUEUE.TsnSwitchDomain1.eth[0].phyLayer.inboundEmitter incomingPacketLengths:vector ETV
attr interpolationmode none
attr recordingmode vector
attr source "packetLength(merge(packetPushedIn, packetPulledIn))"
attr title "incoming packet lengths"
attr unit b
vector 166 TimeSyncUEUE.TsnSwitchDomain1.eth[0].phyLayer.inboundEmitter outgoingPacketLengths:vector ETV
attr interpolationmode none
attr recordingmode vector
attr source "packetLength(merge(packetPushedOut, packetPulledOut))"
attr title "outgoing packet lengths"
attr unit b
vector 167 TimeSyncUEUE.TsnSwitchDomain1.eth[0].phyLayer.phyHeaderChecker incomingPacketLengths:vector ETV
attr interpolationmode none
attr recordingmode vector
attr source "packetLength(merge(packetPushedIn, packetPulledIn))"
attr title "incoming packet lengths"
attr unit b
vector 168 TimeSyncUEUE.TsnSwitchDomain1.eth[0].phyLayer.phyHeaderChecker outgoingPacketLengths:vector ETV
attr interpolationmode none
attr recordingmode vector
attr source "packetLength(merge(packetPushedOut, packetPulledOut))"
attr title "outgoing packet lengths"
attr unit b
vector 169 TimeSyncUEUE.TsnSwitchDomain1.eth[0].macLayer.inboundEmitter incomingPacketLengths:vector ETV
attr interpolationmode none
attr recordingmode vector
attr source "packetLength(merge(packetPushedIn, packetPulledIn))"
attr title "incoming packet lengths"
attr unit b
vector 170 TimeSyncUEUE.TsnSwitchDomain1.eth[0].macLayer.inboundEmitter outgoingPacketLengths:vector ETV
attr interpolationmode none
attr recordingmode vector
attr source "packetLength(merge(packetPushedOut, packetPulledOut))"
attr title "outgoing packet lengths"
attr unit b
vector 171 TimeSyncUEUE.TsnSwitchDomain1.eth[0].macLayer.fcsChecker incomingPacketLengths:vector ETV
attr interpolationmode none
attr recordingmode vector
attr source "packetLength(merge(packetPushedIn, packetPulledIn))"
attr title "incoming packet lengths"
attr unit b
vector 172 TimeSyncUEUE.TsnSwitchDomain1.eth[0].macLayer.fcsChecker outgoingPacketLengths:vector ETV
attr interpolationmode none
attr recordingmode vector
attr source "packetLength(merge(packetPushedOut, packetPulledOut))"
attr title "outgoing packet lengths"
attr unit b
vector 173 TimeSyncUEUE.TsnSwitchDomain1.ethernet.fcsChecker incomingPacketLengths:vector ETV
attr interpolationmode none
attr recordingmode vector
attr source "packetLength(merge(packetPushedIn, packetPulledIn))"
attr title "incoming packet lengths"
attr unit b
vector 174 TimeSyncUEUE.TsnSwitchDomain1.ethernet.fcsChecker outgoingPacketLengths:vector ETV
attr interpolationmode none
attr recordingmode vector
attr source "packetLength(merge(packetPushedOut, packetPulledOut))"
attr title "outgoing packet lengths"
attr unit b
vector 175 TimeSyncUEUE.TsnSwitchDomain1.ethernet.macHeaderChecker incomingPacketLengths:vector ETV
attr interpolationmode none
attr recordingmode vector
attr source "packetLength(merge(packetPushedIn, packetPulledIn))"
attr title "incoming packet lengths"
attr unit b
vector 176 TimeSyncUEUE.TsnSwitchDomain1.ethernet.macHeaderChecker outgoingPacketLengths:vector ETV
attr interpolationmode none
attr recordingmode vector
attr source "packetLength(merge(packetPushedOut, packetPulledOut))"
attr title "outgoing packet lengths"
attr unit b
vector 177 TimeSyncUEUE.FGS.dstt[1].bridging.streamCoder.encoder incomingPacketLengths:vector ETV
attr interpolationmode none
attr recordingmode vector
attr source "packetLength(merge(packetPushedIn, packetPulledIn))"
attr title "incoming packet lengths"
attr unit b
vector 178 TimeSyncUEUE.FGS.dstt[1].bridging.streamCoder.encoder outgoingPacketLengths:vector ETV
attr interpolationmode none
attr recordingmode vector
attr source "packetLength(merge(packetPushedOut, packetPulledOut))"
attr title "outgoing packet lengths"
attr unit b
vector 179 TimeSyncUEUE.FGS.nwtt[0].bridging.streamCoder.encoder incomingPacketLengths:vector ETV
attr interpolationmode none
attr recordingmode vector
attr source "packetLength(merge(packetPushedIn, packetPulledIn))"
attr title "incoming packet lengths"
attr unit b
vector 180 TimeSyncUEUE.FGS.nwtt[0].bridging.streamCoder.encoder outgoingPacketLengths:vector ETV
attr interpolationmode none
attr recordingmode vector
attr source "packetLength(merge(packetPushedOut, packetPulledOut))"
attr title "outgoing packet lengths"
attr unit b
vector 181 TimeSyncUEUE.TsnSwitchDomain1.ethernet.macHeaderInserter incomingPacketLengths:vector ETV
attr interpolationmode none
attr recordingmode vector
attr source "packetLength(merge(packetPushedIn, packetPulledIn))"
attr title "incoming packet lengths"
attr unit b
vector 182 TimeSyncUEUE.TsnSwitchDomain1.ethernet.macHeaderInserter outgoingPacketLengths:vector ETV
attr interpolationmode none
attr recordingmode vector
attr source "packetLength(merge(packetPushedOut, packetPulledOut))"
attr title "outgoing packet lengths"
attr unit b
vector 183 TimeSyncUEUE.TsnSwitchDomain1.ethernet.paddingInserter incomingPacketLengths:vector ETV
attr interpolationmode none
attr recordingmode vector
attr source "packetLength(merge(packetPushedIn, packetPulledIn))"
attr title "incoming packet lengths"
attr unit b
vector 184 TimeSyncUEUE.TsnSwitchDomain1.ethernet.paddingInserter outgoingPacketLengths:vector ETV
attr interpolationmode none
attr recordingmode vector
attr source "packetLength(merge(packetPushedOut, packetPulledOut))"
attr title "outgoing packet lengths"
attr unit b
vector 185 TimeSyncUEUE.TsnSwitchDomain1.ethernet.fcsInserter incomingPacketLengths:vector ETV
attr interpolationmode none
attr recordingmode vector
attr source "packetLength(merge(packetPushedIn, packetPulledIn))"
attr title "incoming packet lengths"
attr unit b
vector 186 TimeSyncUEUE.TsnSwitchDomain1.ethernet.fcsInserter outgoingPacketLengths:vector ETV
attr interpolationmode none
attr recordingmode vector
attr source "packetLength(merge(packetPushedOut, packetPulledOut))"
attr title "outgoing packet lengths"
attr unit b
vector 187 TimeSyncUEUE.TsnSwitchDomain1.eth[0].macLayer.queue incomingPacketLengths:vector ETV
attr interpolationmode none
attr recordingmode vector
attr source packetLength(packetPushStarted)
attr title "incoming packet lengths"
attr unit b
vector 188 TimeSyncUEUE.FGS.dstt[1].ethernet.macHeaderInserter incomingPacketLengths:vector ETV
attr interpolationmode none
attr recordingmode vector
attr source "packetLength(merge(packetPushedIn, packetPulledIn))"
attr title "incoming packet lengths"
attr unit b
vector 189 TimeSyncUEUE.FGS.dstt[1].ethernet.macHeaderInserter outgoingPacketLengths:vector ETV
attr interpolationmode none
attr recordingmode vector
attr source "packetLength(merge(packetPushedOut, packetPulledOut))"
attr title "outgoing packet lengths"
attr unit b
vector 190 TimeSyncUEUE.FGS.dstt[1].ethernet.paddingInserter incomingPacketLengths:vector ETV
attr interpolationmode none
attr recordingmode vector
attr source "packetLength(merge(packetPushedIn, packetPulledIn))"
attr title "incoming packet lengths"
attr unit b
vector 191 TimeSyncUEUE.FGS.dstt[1].ethernet.paddingInserter outgoingPacketLengths:vector ETV
attr interpolationmode none
attr recordingmode vector
attr source "packetLength(merge(packetPushedOut, packetPulledOut))"
attr title "outgoing packet lengths"
attr unit b
vector 192 TimeSyncUEUE.FGS.dstt[1].ethernet.fcsInserter incomingPacketLengths:vector ETV
attr interpolationmode none
attr recordingmode vector
attr source "packetLength(merge(packetPushedIn, packetPulledIn))"
attr title "incoming packet lengths"
attr unit b
vector 193 TimeSyncUEUE.FGS.dstt[1].ethernet.fcsInserter outgoingPacketLengths:vector ETV
attr interpolationmode none
attr recordingmode vector
attr source "packetLength(merge(packetPushedOut, packetPulledOut))"
attr title "outgoing packet lengths"
attr unit b
vector 194 TimeSyncUEUE.FGS.dstt[1].eth[0].macLayer.queue incomingPacketLengths:vector ETV
attr interpolationmode none
attr recordingmode vector
attr source packetLength(packetPushStarted)
attr title "incoming packet lengths"
attr unit b
vector 195 TimeSyncUEUE.FGS.nwtt[0].ethernet.macHeaderInserter incomingPacketLengths:vector ETV
attr interpolationmode none
attr recordingmode vector
attr source "packetLength(merge(packetPushedIn, packetPulledIn))"
attr title "incoming packet lengths"
attr unit b
vector 196 TimeSyncUEUE.FGS.nwtt[0].ethernet.macHeaderInserter outgoingPacketLengths:vector ETV
attr interpolationmode none
attr recordingmode vector
attr source "packetLength(merge(packetPushedOut, packetPulledOut))"
attr title "outgoing packet lengths"
attr unit b
vector 197 TimeSyncUEUE.FGS.nwtt[0].ethernet.paddingInserter incomingPacketLengths:vector ETV
attr interpolationmode none
attr recordingmode vector
attr source "packetLength(merge(packetPushedIn, packetPulledIn))"
attr title "incoming packet lengths"
attr unit b
vector 198 TimeSyncUEUE.FGS.nwtt[0].ethernet.paddingInserter outgoingPacketLengths:vector ETV
attr interpolationmode none
attr recordingmode vector
attr source "packetLength(merge(packetPushedOut, packetPulledOut))"
attr title "outgoing packet lengths"
attr unit b
vector 199 TimeSyncUEUE.FGS.nwtt[0].ethernet.fcsInserter incomingPacketLengths:vector ETV
attr interpolationmode none
attr recordingmode vector
attr source "packetLength(merge(packetPushedIn, packetPulledIn))"
attr title "incoming packet lengths"
attr unit b
vector 200 TimeSyncUEUE.FGS.nwtt[0].ethernet.fcsInserter outgoingPacketLengths:vector ETV
attr interpolationmode none
attr recordingmode vector
attr source "packetLength(merge(packetPushedOut, packetPulledOut))"
attr title "outgoing packet lengths"
attr unit b
vector 201 TimeSyncUEUE.FGS.nwtt[0].eth[0].macLayer.queue incomingPacketLengths:vector ETV
attr interpolationmode none
attr recordingmode vector
attr source packetLength(packetPushStarted)
attr title "incoming packet lengths"
attr unit b
vector 202 TimeSyncUEUE.TsnSwitchDomain1.eth[0].macLayer.queue queueingTime:vector ETV
attr interpolationmode none
attr recordingmode vector
attr source queueingTime(packetPulled)
attr title "queueing times"
attr unit s
vector 203 TimeSyncUEUE.TsnSwitchDomain1.eth[0].macLayer.queue outgoingPacketLengths:vector ETV
attr interpolationmode none
attr recordingmode vector
attr source packetLength(packetPulled)
attr title "outgoing packet lengths"
attr unit b
vector 204 TimeSyncUEUE.TsnSwitchDomain1.eth[0].macLayer.server incomingPacketLengths:vector ETV
attr interpolationmode none
attr recordingmode vector
attr source packetLength(packetPulled)
attr title "incoming packet lengths"
attr unit b
vector 205 TimeSyncUEUE.TsnSwitchDomain1.eth[0].macLayer.server outgoingPacketLengths:vector ETV
attr interpolationmode none
attr recordingmode vector
attr source packetLength(packetPushed)
attr title "outgoing packet lengths"
attr unit b
vector 206 TimeSyncUEUE.TsnSwitchDomain1.eth[0].macLayer.outboundEmitter incomingPacketLengths:vector ETV
attr interpolationmode none
attr recordingmode vector
attr source "packetLength(merge(packetPushedIn, packetPulledIn))"
attr title "incoming packet lengths"
attr unit b
vector 207 TimeSyncUEUE.TsnSwitchDomain1.eth[0].macLayer.outboundEmitter outgoingPacketLengths:vector ETV
attr interpolationmode none
attr recordingmode vector
attr source "packetLength(merge(packetPushedOut, packetPulledOut))"
attr title "outgoing packet lengths"
attr unit b
vector 208 TimeSyncUEUE.TsnSwitchDomain1.eth[0].phyLayer.phyHeaderInserter incomingPacketLengths:vector ETV
attr interpolationmode none
attr recordingmode vector
attr source "packetLength(merge(packetPushedIn, packetPulledIn))"
attr title "incoming packet lengths"
attr unit b
vector 209 TimeSyncUEUE.TsnSwitchDomain1.eth[0].phyLayer.phyHeaderInserter outgoingPacketLengths:vector ETV
attr interpolationmode none
attr recordingmode vector
attr source "packetLength(merge(packetPushedOut, packetPulledOut))"
attr title "outgoing packet lengths"
attr unit b
vector 210 TimeSyncUEUE.TsnSwitchDomain1.eth[0].phyLayer.outboundEmitter incomingPacketLengths:vector ETV
attr interpolationmode none
attr recordingmode vector
attr source "packetLength(merge(packetPushedIn, packetPulledIn))"
attr title "incoming packet lengths"
attr unit b
vector 211 TimeSyncUEUE.TsnSwitchDomain1.eth[0].phyLayer.outboundEmitter outgoingPacketLengths:vector ETV
attr interpolationmode none
attr recordingmode vector
attr source "packetLength(merge(packetPushedOut, packetPulledOut))"
attr title "outgoing packet lengths"
attr unit b
vector 212 TimeSyncUEUE.FGS.dstt[1].eth[0].macLayer.queue queueingTime:vector ETV
attr interpolationmode none
attr recordingmode vector
attr source queueingTime(packetPulled)
attr title "queueing times"
attr unit s
vector 213 TimeSyncUEUE.FGS.dstt[1].eth[0].macLayer.queue outgoingPacketLengths:vector ETV
attr interpolationmode none
attr recordingmode vector
attr source packetLength(packetPulled)
attr title "outgoing packet lengths"
attr unit b
vector 214 TimeSyncUEUE.FGS.dstt[1].eth[0].macLayer.server incomingPacketLengths:vector ETV
attr interpolationmode none
attr recordingmode vector
attr source packetLength(packetPulled)
attr title "incoming packet lengths"
attr unit b
vector 215 TimeSyncUEUE.FGS.dstt[1].eth[0].macLayer.server outgoingPacketLengths:vector ETV
attr interpolationmode none
attr recordingmode vector
attr source packetLength(packetPushed)
attr title "outgoing packet lengths"
attr unit b
vector 216 TimeSyncUEUE.FGS.dstt[1].eth[0].macLayer.outboundEmitter incomingPacketLengths:vector ETV
attr interpolationmode none
attr recordingmode vector
attr source "packetLength(merge(packetPushedIn, packetPulledIn))"
attr title "incoming packet lengths"
attr unit b
vector 217 TimeSyncUEUE.FGS.dstt[1].eth[0].macLayer.outboundEmitter outgoingPacketLengths:vector ETV
attr interpolationmode none
attr recordingmode vector
attr source "packetLength(merge(packetPushedOut, packetPulledOut))"
attr title "outgoing packet lengths"
attr unit b
vector 218 TimeSyncUEUE.FGS.dstt[1].eth[0].phyLayer.phyHeaderInserter incomingPacketLengths:vector ETV
attr interpolationmode none
attr recordingmode vector
attr source "packetLength(merge(packetPushedIn, packetPulledIn))"
attr title "incoming packet lengths"
attr unit b
vector 219 TimeSyncUEUE.FGS.dstt[1].eth[0].phyLayer.phyHeaderInserter outgoingPacketLengths:vector ETV
attr interpolationmode none
attr recordingmode vector
attr source "packetLength(merge(packetPushedOut, packetPulledOut))"
attr title "outgoing packet lengths"
attr unit b
vector 220 TimeSyncUEUE.FGS.dstt[1].eth[0].phyLayer.outboundEmitter incomingPacketLengths:vector ETV
attr interpolationmode none
attr recordingmode vector
attr source "packetLength(merge(packetPushedIn, packetPulledIn))"
attr title "incoming packet lengths"
attr unit b
vector 221 TimeSyncUEUE.FGS.dstt[1].eth[0].phyLayer.outboundEmitter outgoingPacketLengths:vector ETV
attr interpolationmode none
attr recordingmode vector
attr source "packetLength(merge(packetPushedOut, packetPulledOut))"
attr title "outgoing packet lengths"
attr unit b
vector 222 TimeSyncUEUE.FGS.nwtt[0].eth[0].macLayer.queue queueingTime:vector ETV
attr interpolationmode none
attr recordingmode vector
attr source queueingTime(packetPulled)
attr title "queueing times"
attr unit s
vector 223 TimeSyncUEUE.FGS.nwtt[0].eth[0].macLayer.queue outgoingPacketLengths:vector ETV
attr interpolationmode none
attr recordingmode vector
attr source packetLength(packetPulled)
attr title "outgoing packet lengths"
attr unit b
vector 224 TimeSyncUEUE.FGS.nwtt[0].eth[0].macLayer.server incomingPacketLengths:vector ETV
attr interpolationmode none
attr recordingmode vector
attr source packetLength(packetPulled)
attr title "incoming packet lengths"
attr unit b
vector 225 TimeSyncUEUE.FGS.nwtt[0].eth[0].macLayer.server outgoingPacketLengths:vector ETV
attr interpolationmode none
attr recordingmode vector
attr source packetLength(packetPushed)
attr title "outgoing packet lengths"
attr unit b
vector 226 TimeSyncUEUE.FGS.nwtt[0].eth[0].macLayer.outboundEmitter incomingPacketLengths:vector ETV
attr interpolationmode none
attr recordingmode vector
attr source "packetLength(merge(packetPushedIn, packetPulledIn))"
attr title "incoming packet lengths"
attr unit b
vector 227 TimeSyncUEUE.FGS.nwtt[0].eth[0].macLayer.outboundEmitter outgoingPacketLengths:vector ETV
attr interpolationmode none
attr recordingmode vector
attr source "packetLength(merge(packetPushedOut, packetPulledOut))"
attr title "outgoing packet lengths"
attr unit b
vector 228 TimeSyncUEUE.FGS.nwtt[0].eth[0].phyLayer.phyHeaderInserter incomingPacketLengths:vector ETV
attr interpolationmode none
attr recordingmode vector
attr source "packetLength(merge(packetPushedIn, packetPulledIn))"
attr title "incoming packet lengths"
attr unit b
vector 229 TimeSyncUEUE.FGS.nwtt[0].eth[0].phyLayer.phyHeaderInserter outgoingPacketLengths:vector ETV
attr interpolationmode none
attr recordingmode vector
attr source "packetLength(merge(packetPushedOut, packetPulledOut))"
attr title "outgoing packet lengths"
attr unit b
vector 230 TimeSyncUEUE.FGS.nwtt[0].eth[0].phyLayer.outboundEmitter incomingPacketLengths:vector ETV
attr interpolationmode none
attr recordingmode vector
attr source "packetLength(merge(packetPushedIn, packetPulledIn))"
attr title "incoming packet lengths"
attr unit b
vector 231 TimeSyncUEUE.FGS.nwtt[0].eth[0].phyLayer.outboundEmitter outgoingPacketLengths:vector ETV
attr interpolationmode none
attr recordingmode vector
attr source "packetLength(merge(packetPushedOut, packetPulledOut))"
attr title "outgoing packet lengths"
attr unit b
vector 232 TimeSyncUEUE.TsnSwitchDomain1.eth[0].phyLayer.transmitter transmissionTime:vector ETV
attr interpolationmode none
attr recordingmode vector
attr source packetDuration(transmissionEnded)
attr title "transmission time"
attr unit s
vector 233 TimeSyncUEUE.FGS.dstt[1].eth[0].phyLayer.transmitter transmissionTime:vector ETV
attr interpolationmode none
attr recordingmode vector
attr source packetDuration(transmissionEnded)
attr title "transmission time"
attr unit s
vector 234 TimeSyncUEUE.FGS.nwtt[0].eth[0].phyLayer.transmitter transmissionTime:vector ETV
attr interpolationmode none
attr recordingmode vector
attr source packetDuration(transmissionEnded)
attr title "transmission time"
attr unit s
vector 235 TimeSyncUEUE.FGS.dstt[0].eth[0].phyLayer.receiver receptionTime:vector ETV
attr interpolationmode none
attr recordingmode vector
attr source packetDuration(receptionEnded)
attr title "reception time"
attr unit s
vector 236 TimeSyncUEUE.FGS.dstt[0].eth[0].phyLayer.inboundEmitter incomingPacketLengths:vector ETV
attr interpolationmode none
attr recordingmode vector
attr source "packetLength(merge(packetPushedIn, packetPulledIn))"
attr title "incoming packet lengths"
attr unit b
vector 237 TimeSyncUEUE.FGS.dstt[0].eth[0].phyLayer.inboundEmitter outgoingPacketLengths:vector ETV
attr interpolationmode none
attr recordingmode vector
attr source "packetLength(merge(packetPushedOut, packetPulledOut))"
attr title "outgoing packet lengths"
attr unit b
vector 238 TimeSyncUEUE.FGS.dstt[0].eth[0].phyLayer.phyHeaderChecker incomingPacketLengths:vector ETV
attr interpolationmode none
attr recordingmode vector
attr source "packetLength(merge(packetPushedIn, packetPulledIn))"
attr title "incoming packet lengths"
attr unit b
vector 239 TimeSyncUEUE.FGS.dstt[0].eth[0].phyLayer.phyHeaderChecker outgoingPacketLengths:vector ETV
attr interpolationmode none
attr recordingmode vector
attr source "packetLength(merge(packetPushedOut, packetPulledOut))"
attr title "outgoing packet lengths"
attr unit b
vector 240 TimeSyncUEUE.FGS.dstt[0].eth[0].macLayer.inboundEmitter incomingPacketLengths:vector ETV
attr interpolationmode none
attr recordingmode vector
attr source "packetLength(merge(packetPushedIn, packetPulledIn))"
attr title "incoming packet lengths"
attr unit b
vector 241 TimeSyncUEUE.FGS.dstt[0].eth[0].macLayer.inboundEmitter outgoingPacketLengths:vector ETV
attr interpolationmode none
attr recordingmode vector
attr source "packetLength(merge(packetPushedOut, packetPulledOut))"
attr title "outgoing packet lengths"
attr unit b
vector 242 TimeSyncUEUE.FGS.dstt[0].eth[0].macLayer.fcsChecker incomingPacketLengths:vector ETV
attr interpolationmode none
attr recordingmode vector
attr source "packetLength(merge(packetPushedIn, packetPulledIn))"
attr title "incoming packet lengths"
attr unit b
vector 243 TimeSyncUEUE.FGS.dstt[0].eth[0].macLayer.fcsChecker outgoingPacketLengths:vector ETV
attr interpolationmode none
attr recordingmode vector
attr source "packetLength(merge(packetPushedOut, packetPulledOut))"
attr title "outgoing packet lengths"
attr unit b
vector 244 TimeSyncUEUE.FGS.dstt[0].ethernet.fcsChecker incomingPacketLengths:vector ETV
attr interpolationmode none
attr recordingmode vector
attr source "packetLength(merge(packetPushedIn, packetPulledIn))"
attr title "incoming packet lengths"
attr unit b
vector 245 TimeSyncUEUE.FGS.dstt[0].ethernet.fcsChecker outgoingPacketLengths:vector ETV
attr interpolationmode none
attr recordingmode vector
attr source "packetLength(merge(packetPushedOut, packetPulledOut))"
attr title "outgoing packet lengths"
attr unit b
vector 246 TimeSyncUEUE.FGS.dstt[0].ethernet.macHeaderChecker incomingPacketLengths:vector ETV
attr interpolationmode none
attr recordingmode vector
attr source "packetLength(merge(packetPushedIn, packetPulledIn))"
attr title "incoming packet lengths"
attr unit b
vector 247 TimeSyncUEUE.FGS.dstt[0].ethernet.macHeaderChecker outgoingPacketLengths:vector ETV
attr interpolationmode none
attr recordingmode vector
attr source "packetLength(merge(packetPushedOut, packetPulledOut))"
attr title "outgoing packet lengths"
attr unit b
vector 248 TimeSyncUEUE.FGS.dstt[0].bridging.interfaceRelay.learner incomingPacketLengths:vector ETV
attr interpolationmode none
attr recordingmode vector
attr source "packetLength(merge(packetPushedIn, packetPulledIn))"
attr title "incoming packet lengths"
attr unit b
vector 249 TimeSyncUEUE.FGS.dstt[0].bridging.interfaceRelay.learner outgoingPacketLengths:vector ETV
attr interpolationmode none
attr recordingmode vector
attr source "packetLength(merge(packetPushedOut, packetPulledOut))"
attr title "outgoing packet lengths"
attr unit b
vector 250 TimeSyncUEUE.FGS.dstt[0].bridging.streamCoder.decoder incomingPacketLengths:vector ETV
attr interpolationmode none
attr recordingmode vector
attr source "packetLength(merge(packetPushedIn, packetPulledIn))"
attr title "incoming packet lengths"
attr unit b
vector 251 TimeSyncUEUE.FGS.dstt[0].bridging.streamCoder.decoder outgoingPacketLengths:vector ETV
attr interpolationmode none
attr recordingmode vector
attr source "packetLength(merge(packetPushedOut, packetPulledOut))"
attr title "outgoing packet lengths"
attr unit b
vector 252 TimeSyncUEUE.FGS.dstt[0].gptp.classifier packetLengths:vector ETV
attr interpolationmode none
attr recordingmode vector
attr source packetLength(packetPushed)
attr title "packet lengths"
attr unit b
vector 253 TimeSyncUEUE.TsnSwitchDomain2.eth[0].phyLayer.receiver receptionTime:vector ETV
attr interpolationmode none
attr recordingmode vector
attr source packetDuration(receptionEnded)
attr title "reception time"
attr unit s
vector 254 TimeSyncUEUE.TsnSwitchDomain2.eth[0].phyLayer.inboundEmitter incomingPacketLengths:vector ETV
attr interpolationmode none
attr recordingmode vector
attr source "packetLength(merge(packetPushedIn, packetPulledIn))"
attr title "incoming packet lengths"
attr unit b
vector 255 TimeSyncUEUE.TsnSwitchDomain2.eth[0].phyLayer.inboundEmitter outgoingPacketLengths:vector ETV
attr interpolationmode none
attr recordingmode vector
attr source "packetLength(merge(packetPushedOut, packetPulledOut))"
attr title "outgoing packet lengths"
attr unit b
vector 256 TimeSyncUEUE.TsnSwitchDomain2.eth[0].phyLayer.phyHeaderChecker incomingPacketLengths:vector ETV
attr interpolationmode none
attr recordingmode vector
attr source "packetLength(merge(packetPushedIn, packetPulledIn))"
attr title "incoming packet lengths"
attr unit b
vector 257 TimeSyncUEUE.TsnSwitchDomain2.eth[0].phyLayer.phyHeaderChecker outgoingPacketLengths:vector ETV
attr interpolationmode none
attr recordingmode vector
attr source "packetLength(merge(packetPushedOut, packetPulledOut))"
attr title "outgoing packet lengths"
attr unit b
vector 258 TimeSyncUEUE.TsnSwitchDomain2.eth[0].macLayer.inboundEmitter incomingPacketLengths:vector ETV
attr interpolationmode none
attr recordingmode vector
attr source "packetLength(merge(packetPushedIn, packetPulledIn))"
attr title "incoming packet lengths"
attr unit b
vector 259 TimeSyncUEUE.TsnSwitchDomain2.eth[0].macLayer.inboundEmitter outgoingPacketLengths:vector ETV
attr interpolationmode none
attr recordingmode vector
attr source "packetLength(merge(packetPushedOut, packetPulledOut))"
attr title "outgoing packet lengths"
attr unit b
vector 260 TimeSyncUEUE.TsnSwitchDomain2.eth[0].macLayer.fcsChecker incomingPacketLengths:vector ETV
attr interpolationmode none
attr recordingmode vector
attr source "packetLength(merge(packetPushedIn, packetPulledIn))"
attr title "incoming packet lengths"
attr unit b
vector 261 TimeSyncUEUE.TsnSwitchDomain2.eth[0].macLayer.fcsChecker outgoingPacketLengths:vector ETV
attr interpolationmode none
attr recordingmode vector
attr source "packetLength(merge(packetPushedOut, packetPulledOut))"
attr title "outgoing packet lengths"
attr unit b
vector 262 TimeSyncUEUE.TsnSwitchDomain2.ethernet.fcsChecker incomingPacketLengths:vector ETV
attr interpolationmode none
attr recordingmode vector
attr source "packetLength(merge(packetPushedIn, packetPulledIn))"
attr title "incoming packet lengths"
attr unit b
vector 263 TimeSyncUEUE.TsnSwitchDomain2.ethernet.fcsChecker outgoingPacketLengths:vector ETV
attr interpolationmode none
attr recordingmode vector
attr source "packetLength(merge(packetPushedOut, packetPulledOut))"
attr title "outgoing packet lengths"
attr unit b
vector 264 TimeSyncUEUE.TsnSwitchDomain2.ethernet.macHeaderChecker incomingPacketLengths:vector ETV
attr interpolationmode none
attr recordingmode vector
attr source "packetLength(merge(packetPushedIn, packetPulledIn))"
attr title "incoming packet lengths"
attr unit b
vector 265 TimeSyncUEUE.TsnSwitchDomain2.ethernet.macHeaderChecker outgoingPacketLengths:vector ETV
attr interpolationmode none
attr recordingmode vector
attr source "packetLength(merge(packetPushedOut, packetPulledOut))"
attr title "outgoing packet lengths"
attr unit b
vector 266 TimeSyncUEUE.TsnSwitchDataNetwork.eth[0].phyLayer.receiver receptionTime:vector ETV
attr interpolationmode none
attr recordingmode vector
attr source packetDuration(receptionEnded)
attr title "reception time"
attr unit s
vector 267 TimeSyncUEUE.TsnSwitchDataNetwork.eth[0].phyLayer.inboundEmitter incomingPacketLengths:vector ETV
attr interpolationmode none
attr recordingmode vector
attr source "packetLength(merge(packetPushedIn, packetPulledIn))"
attr title "incoming packet lengths"
attr unit b
vector 268 TimeSyncUEUE.TsnSwitchDataNetwork.eth[0].phyLayer.inboundEmitter outgoingPacketLengths:vector ETV
attr interpolationmode none
attr recordingmode vector
attr source "packetLength(merge(packetPushedOut, packetPulledOut))"
attr title "outgoing packet lengths"
attr unit b
vector 269 TimeSyncUEUE.TsnSwitchDataNetwork.eth[0].phyLayer.phyHeaderChecker incomingPacketLengths:vector ETV
attr interpolationmode none
attr recordingmode vector
attr source "packetLength(merge(packetPushedIn, packetPulledIn))"
attr title "incoming packet lengths"
attr unit b
vector 270 TimeSyncUEUE.TsnSwitchDataNetwork.eth[0].phyLayer.phyHeaderChecker outgoingPacketLengths:vector ETV
attr interpolationmode none
attr recordingmode vector
attr source "packetLength(merge(packetPushedOut, packetPulledOut))"
attr title "outgoing packet lengths"
attr unit b
vector 271 TimeSyncUEUE.TsnSwitchDataNetwork.eth[0].macLayer.inboundEmitter incomingPacketLengths:vector ETV
attr interpolationmode none
attr recordingmode vector
attr source "packetLength(merge(packetPushedIn, packetPulledIn))"
attr title "incoming packet lengths"
attr unit b
vector 272 TimeSyncUEUE.TsnSwitchDataNetwork.eth[0].macLayer.inboundEmitter outgoingPacketLengths:vector ETV
attr interpolationmode none
attr recordingmode vector
attr source "packetLength(merge(packetPushedOut, packetPulledOut))"
attr title "outgoing packet lengths"
attr unit b
vector 273 TimeSyncUEUE.TsnSwitchDataNetwork.eth[0].macLayer.fcsChecker incomingPacketLengths:vector ETV
attr interpolationmode none
attr recordingmode vector
attr source "packetLength(merge(packetPushedIn, packetPulledIn))"
attr title "incoming packet lengths"
attr unit b
vector 274 TimeSyncUEUE.TsnSwitchDataNetwork.eth[0].macLayer.fcsChecker outgoingPacketLengths:vector ETV
attr interpolationmode none
attr recordingmode vector
attr source "packetLength(merge(packetPushedOut, packetPulledOut))"
attr title "outgoing packet lengths"
attr unit b
vector 275 TimeSyncUEUE.TsnSwitchDataNetwork.ethernet.fcsChecker incomingPacketLengths:vector ETV
attr interpolationmode none
attr recordingmode vector
attr source "packetLength(merge(packetPushedIn, packetPulledIn))"
attr title "incoming packet lengths"
attr unit b
vector 276 TimeSyncUEUE.TsnSwitchDataNetwork.ethernet.fcsChecker outgoingPacketLengths:vector ETV
attr interpolationmode none
attr recordingmode vector
attr source "packetLength(merge(packetPushedOut, packetPulledOut))"
attr title "outgoing packet lengths"
attr unit b
vector 277 TimeSyncUEUE.TsnSwitchDataNetwork.ethernet.macHeaderChecker incomingPacketLengths:vector ETV
attr interpolationmode none
attr recordingmode vector
attr source "packetLength(merge(packetPushedIn, packetPulledIn))"
attr title "incoming packet lengths"
attr unit b
vector 278 TimeSyncUEUE.TsnSwitchDataNetwork.ethernet.macHeaderChecker outgoingPacketLengths:vector ETV
attr interpolationmode none
attr recordingmode vector
attr source "packetLength(merge(packetPushedOut, packetPulledOut))"
attr title "outgoing packet lengths"
attr unit b
vector 279 TimeSyncUEUE.FGS.dstt[0].gptp.domain[0] peerDelay:vector ETV
attr interpolationmode sample-hold
attr recordingmode vector
vector 280 TimeSyncUEUE.TsnSwitchDomain2.gptp peerDelay:vector ETV
attr interpolationmode sample-hold
attr recordingmode vector
vector 281 TimeSyncUEUE.TsnSwitchDataNetwork.gptp peerDelay:vector ETV
attr interpolationmode sample-hold
attr recordingmode vector
vector 282 TimeSyncUEUE.TsnSwitchDomain1.clock.oscillator driftRateChanged:vector ETV
attr interpolationmode sample-hold
attr recordingmode vector
attr title "Oscillator drift rate"
attr unit ppm
vector 283 TimeSyncUEUE.TsnSwitchDomain1.gptp localTime:vector ETV
attr interpolationmode linear
attr recordingmode vector
vector 284 TimeSyncUEUE.TsnSwitchDomain1.gptp timeDifference:vector ETV
attr interpolationmode linear
attr recordingmode vector
vector 285 TimeSyncUEUE.FGS.dstt[0].tt[1].macLayer.queue incomingPacketLengths:vector ETV
attr interpolationmode none
attr recordingmode vector
[...]
356	9311706 28587 2959 52985 5.52112819701 99.92112819701 945 -627.94992010184 22880 10082092.05008 135375011921.1
357	9340293 28587 2959 52985 5.52112819701 99.92112819701 945 -627.94992010184 22880 10082092.05008 135375011921.1
358	9368880 28587 2959 52985 5.52112819701 99.92112819701 945 -661.81992657983 24160 10625418.180073 150446594805.62
359	9397467 28617 2959 53032 5.52112819701 100 946 -661.81992657983 24160 10646515.707161 150891700454.81
360	9426084 28617 2960 53032 5.52112819701 100 946 -661.81992657983 24160 10646515.707161 150891700454.81
361	9454701 28617 2960 53032 5.52112819701 100 946 -661.81992657983 24160 10646515.707161 150891700454.81
362	9483318 28617 2960 53032 5.52112819701 100 946 -661.81992657983 24160 10646515.707161 150891700454.81
363	9511935 28587 2960 52986 5.52112819701 99.92112819701 945 -661.81992657983 24160 10625418.180073 150446594805.62
364	9540522 28587 2960 52986 5.52112819701 99.92112819701 945 -661.81992657983 24160 10625418.180073 150446594805.62
365	9569109 28587 2960 52986 5.52112819701 99.92112819701 945 -661.81992657983 24160 10625418.180073 150446594805.62
366	9597696 28586 2960 52986 5.52112819701 99.92112819701 945 -729.5599395358 26720 11712070.44006 182982241057.71
367	9626282 28586 2960 52986 5.52112819701 99.92112819701 945 -729.5599395358 26720 11712070.44006 182982241057.71
368	9654868 28586 2960 52986 5.52112819701 99.92112819701 945 -729.5599395358 26720 11712070.44006 182982241057.71
369	9683454 28617 2961 53032 5.52120979701 100 946 -729.56056964644 26720 11735626.667611 183537136944.7
370	9712071 28617 2962 53032 5.52120984701 100 946 -729.56057003254 26720 11735626.682559 183537137648.98
371	9740688 28587 2962 52993 5.52120984701 99.92120984701 945 -729.56057003254 26720 11712070.43943 182982241058.63
372	9769275 28587 2962 52993 5.52120984701 99.92120984701 945 -729.56057003254 26720 11712070.43943 182982241058.63
373	9797862 28587 2962 52993 5.52120984701 99.92120984701 945 -729.56057003254 26720 11712070.43943 182982241058.63
374	9826449 28587 2962 52993 5.52120984701 99.92120984701 945 -661.82049853462 24160 10625418.179501 150446594806.37
375	9855036 28587 2962 52993 5.52120984701 99.92120984701 945 -661.82049853462 24160 10625418.179501 150446594806.37
376	9883623 28587 2962 52993 5.52120984701 99.92120984701 945 -661.82049853462 24160 10625418.179501 150446594806.37
377	9912210 28587 2962 52993 5.52120984701 99.92120984701 945 -661.82049853462 24160 10625418.179501 150446594806.37
378	9940797 28587 2962 52993 5.52120984701 99.92120984701 945 -661.82049853462 24160 10625418.179501 150446594806.37
379	9969384 28587 2962 52993 5.52120984701 99.92120984701 945 -661.82049853462 24160 10625418.179501 150446594806.37
380	9997971 28587 2962 52993 5.52120984701 99.92120984701 945 -627.95046278567 22880 10082092.049537 135375011921.78
381	10026558 28587 2962 52993 5.52120984701 99.92120984701 945 -627.95046278567 22880 10082092.049537 135375011921.78
382	10055145 28014 2962 52993 5.52120984701 99.92120984701 945 -509.40533766432 18400 8180450.5946623 88904733093.798
383	10083159 28902 3111 53012 5.887254610272 99.987254610272 942 -506.96640292897 13920 7628293.0335971 72608564214.934
384	10112061 28902 3111 53012 5.887254610272 99.987254610272 942 -506.96640292897 13920 7628293.0335971 72608564214.934
385	10140963 28902 3114 53015 5.887254610272 99.987254610272 942 -506.96640292897 13920 7628293.0335971 72608564214.934
386	10169865 29501 3114 53015 5.887254610272 99.987254610272 942 -625.97260079961 17280 9419054.0273992 110407892641.7
387	10199366 29501 3114 53015 5.887254610272 99.987254610272 942 -625.97260079961 17280 9419054.0273992 110407892641.7
388	10228867 29501 3114 53015 5.887254610272 99.987254610272 942 -633.96301694236 17440 9539526.0369831 113099256309.11
389	10258368 29501 3114 53015 5.887254610272 99.987254610272 942 -633.96301694236 17440 9539526.0369831 113099256309.11
390	10287869 29501 3114 53015 5.887254610272 99.987254610272 942 -667.96478776254 18400 10051172.035212 125501066976.96
391	10317370 29545 3125 52981 5.897316772696 99.897316772696 941 -668.03621155151 18400 10046051.963788 120482033472.38
392	10346915 29545 3125 52981 5.897316772696 99.897316772696 941 -634.03080500778 17440 9534725.969195 108537336395.06
393	10376460 29545 3125 52981 5.897316772696 99.897316772696 941 -634.03080500778 17440 9534725.969195 108537336395.06
394	10406005 28866 3125 52981 5.897316772696 99.897316772696 941 -515.01188210474 14080 7745084.9881179 71656406037.239
395	10434871 28866 3125 52981 5.897316772696 99.897316772696 941 -515.01188210474 14080 7745084.9881179 71656406037.239
396	10463737 28866 3125 52981 5.897316772696 99.897316772696 941 -515.01188210474 14080 7745084.9881179 71656406037.239
397	10492603 28866 3125 52981 5.897316772696 99.897316772696 941 -515.01188210474 14080 7745084.9881179 71656406037.239
398	10521469 28866 3125 52981 5.897316772696 99.897316772696 941 -515.01188210474 14080 7745084.9881179 71656406037.239
399	10550335 28913 3125 53032 5.897316772696 100 943 -515.01188210474 14080 7753084.9881179 71720406037.239
400	10579248 26100 3354 53008 6.260308929547 99.960308929547 938 0 0 0 0
401	10605348 29344 3359 53032 6.260308929547 100 939 -674.20747047801 31845.953902825 9498531.7464323 112827560135.69
402	10634692 29344 3361 53032 6.260308929547 100 939 -674.20747047801 31845.953902825 9498531.7464323 112827560135.69
403	10664036 29344 3361 53032 6.260308929547 100 939 -674.20747047801 31845.953902825 9498531.7464323 112827560135.69
404	10693380 29344 3361 53032 6.260308929547 100 939 -674.20747047801 31845.953902825 9498531.7464323 112827560135.69
405	10722724 29314 3361 52977 6.260308929547 99.960308929547 938 -674.20747047801 12640 9466685.7925295 111813395355.71
406	10752038 29314 3361 52977 6.260308929547 99.960308929547 938 -674.20747047801 12640 9466685.7925295 111813395355.71
407	10781352 29362 3370 53008 6.277690570969 99.977690570969 938 -674.33250828989 12640 9466685.6674917 109965280324.33
408	10810714 29362 3370 53008 6.277690570969 99.977690570969 938 -742.61934457241 13920 10425337.380655 133287181883.49
409	10840076 29362 3370 53008 6.277690570969 99.977690570969 938 -742.61934457241 13920 10425337.380655 133287181883.49
410	10869438 29362 3370 53008 6.277690570969 99.977690570969 938 -742.61934457241 13920 10425337.380655 133287181883.49
411	10898800 29392 3371 53032 6.277690570969 100 939 -742.61934457241 25818.679590572 10451156.060246 133953786099.29
412	10928192 29362 3371 53009 6.277690570969 99.977690570969 938 -742.61934457241 13920 10425337.380655 133287181883.49
413	10957554 29362 3371 53009 6.277690570969 99.977690570969 938 -742.61934457241 13920 10425337.380655 133287181883.49
414	10986916 29362 3371 53009 6.277690570969 99.977690570969 938 -742.61934457241 13920 10425337.380655 133287181883.49
415	11016278 29362 3371 53009 6.277690570969 99.977690570969 938 -674.33250828989 12640 9466685.6674917 109965280324.33
416	11045640 29362 3371 53009 6.277690570969 99.977690570969 938 -674.33250828989 12640 9466685.6674917 109965280324.33
417	11075002 29362 3371 53009 6.277690570969 99.977690570969 938 -674.33250828989 12640 9466685.6674917 109965280324.33
418	11104364 29362 3371 53009 6.277690570969 99.977690570969 938 -674.33250828989 12640 9466685.6674917 109965280324.33
419	11133726 29362 3371 53009 6.277690570969 99.977690570969 938 -674.33250828989 12640 9466685.6674917 109965280324.33
420	11163088 29392 3372 53032 6.277690570969 100 939 -742.61934457241 25818.679590572 10451156.060246 133953786099.29
421	11192480 12424 26022 52519 49.00013605 99.00013605 501 0 0.064 6.4 0.4096
422	11204904 12336 26023 52520 49.00013605 99.00013605 501 -847.06108318942 4320 426832.93891681 1848295112.4787
423	11217240 12336 26023 52520 49.00013605 99.00013605 501 -847.06108318942 4320 426832.93891681 1848295112.4787
424	11229576 12336 26024 52521 49.00013605 99.00013605 501 -847.06108318942 4320 426832.93891681 1848295112.4787
425	11241912 12336 26024 52521 49.00013605 99.00013605 501 -1066.6695121645 5440 537493.33048784 2930904183.8482
426	11254248 12336 26024 52521 49.00013605 99.00013605 501 -1066.6695121645 5440 537493.33048784 2930904183.8482
427	11266584 12336 26024 52521 49.00013605 99.00013605 501 -1066.6695121645 5440 537493.33048784 2930904183.8482
428	11278920 12336 26024 52521 49.00013605 99.00013605 501 -1066.6695121645 5440 537493.33048784 2930904183.8482
429	11291256 12336 26024 52521 49.00013605 99.00013605 501 -1129.4147775859 5760 569110.58522241 3285857977.7398
430	11303592 12571 26024 53032 49.00013605 100 511 -1129.4147775859 5760 574870.58522241 3319035577.7398
431	11316163 12571 26033 53032 49.00014565 100 511 -1129.4149901822 5760 574870.58500982 3319035578.22
432	11328734 12571 26033 53032 49.00014565 100 511 -1129.4149901822 5760 574870.58500982 3319035578.22
433	11341305 12571 26033 53032 49.00014565 100 511 -1129.4149901822 5760 574870.58500982 3319035578.22
434	11353876 12336 26033 52531 49.00014565 99.00014565 501 -1129.4149901822 5760 569110.58500982 3285857978.22
435	11366212 12336 26033 52531 49.00014565 99.00014565 501 -1129.4149901822 5760 569110.58500982 3285857978.22
436	11378548 12336 26033 52531 49.00014565 99.00014565 501 -1129.4149901822 5760 569110.58500982 3285857978.22
437	11390884 12336 26033 52531 49.00014565 99.00014565 501 -1254.9055446469 6400 632345.09445535 4056614787.926
438	11403220 12336 26033 52531 49.00014565 99.00014565 501 -1254.9055446469 6400 632345.09445535 4056614787.926
439	11415556 12336 26033 52531 49.00014565 99.00014565 501 -1254.9055446469 6400 632345.09445535 4056614787.926
440	11427892 12571 26035 53032 49.00020965 100 511 -1254.9071194368 6400 638745.09288056 4097574791.8784
441	11440463 12061 26038 53032 49.0002097 100 511 -1254.9071206671 6400 638745.09287933 4097574791.8815
442	11452524 11835 26038 52536 49.0002097 99.0002097 501 -1254.9071206671 6400 632345.09287933 4056614791.8815
443	11464359 11835 26038 52536 49.0002097 99.0002097 501 -1254.9071206671 6400 632345.09287933 4056614791.8815
444	11476194 11835 26038 52536 49.0002097 99.0002097 501 -1254.9071206671 6400 632345.09287933 4056614791.8815
445	11488029 11835 26038 52536 49.0002097 99.0002097 501 -1129.4164086004 5760 569110.5835914 3285857981.424
446	11499864 11835 26038 52536 49.0002097 99.0002097 501 -1129.4164086004 5760 569110.5835914 3285857981.424
447	11511699 11835 26038 52536 49.0002097 99.0002097 501 -1129.4164086004 5760 569110.5835914 3285857981.424
448	11523534 11835 26038 52536 49.0002097 99.0002097 501 -1129.4164086004 5760 569110.5835914 3285857981.424
449	11535369 11835 26038 52536 49.0002097 99.0002097 501 -1129.4164086004 5760 569110.5835914 3285857981.424
450	11547204 11835 26038 52536 49.0002097 99.0002097 501 -1129.4164086004 5760 569110.5835914 3285857981.424
451	11559039 11835 26038 52536 49.0002097 99.0002097 501 -1066.6710525671 5440 537493.32894743 2930904187.1344
452	11570874 11835 26038 52536 49.0002097 99.0002097 501 -1066.6710525671 5440 537493.32894743 2930904187.1344
453	11582709 11835 26038 52536 49.0002097 99.0002097 501 -847.06230645031 4320 426832.93769355 1848295114.551
454	11594544 592 51907 52969 97.983082016109 99.983082016109 21 0 0.064 0.064 0.004096
455	11595136 444 51972 53029 98.000064 99.900064 20 0 0.064 0.064 0.004096
456	11595580 444 51973 53031 98.000064 99.900064 20 0 0.064 0.064 0.004096
457	11596024 312 52435 52968 98.98336074974 99.98336074974 11 -42492.949184238 0 -42492.949184238 1805650730.3742
458	11596336 312 52435 52968 98.98336074974 99.98336074974 11 -53509.639713485 0 -53509.639713485 2863281542.267
459	11596648 312 52435 52968 98.98336074974 99.98336074974 11 -53509.639713485 0 -53509.639713485 2863281542.267
460	11596960 312 52435 52968 98.98336074974 99.98336074974 11 -53509.639713485 0 -53509.639713485 2863281542.267
461	11597272 312 52435 52968 98.98336074974 99.98336074974 11 -53509.639713485 0 -53509.639713485 2863281542.267
462	11597584 312 52435 52968 98.98336074974 99.98336074974 11 -56657.265578984 0 -56657.265578984 3210045742.8875
463	11597896 342 52435 53032 98.98336074974 100 12 -56657.265578984 34616.944333404 -22040.32124558 4408378577.8695
464	11598238 342 52436 53032 98.98336074974 100 12 -56657.265578984 34616.944333404 -22040.32124558 4408378577.8695
465	11598580 342 52436 53032 98.98336074974 100 12 -56657.265578984 34616.944333404 -22040.32124558 4408378577.8695
466	11598922 342 52436 53032 98.98336074974 100 12 -56657.265578984 34616.944333404 -22040.32124558 4408378577.8695
467	11599264 312 52436 52969 98.98336074974 99.98336074974 11 -56657.265578984 0 -56657.265578984 3210045742.8875
468	11599576 312 52436 52969 98.98336074974 99.98336074974 11 -56657.265578984 0 -56657.265578984 3210045742.8875
469	11599888 312 52436 52969 98.98336074974 99.98336074974 11 -56657.265578984 0 -56657.265578984 3210045742.8875
470	11600200 312 52436 52969 98.98336074974 99.98336074974 11 -62952.517309982 0 -62952.517309982 3963019435.6636
471	11600512 312 52436 52969 98.98336074974 99.98336074974 11 -62952.517309982 0 -62952.517309982 3963019435.6636
472	11600824 312 52436 52969 98.98336074974 99.98336074974 11 -62952.517309982 0 -62952.517309982 3963019435.6636
473	11601136 342 52440 53032 98.98342474974 100 12 -62956.480578916 38611.785038593 -24344.695540323 5454388390.7499
474	11601478 342 52441 53032 98.98342479974 100 12 -62956.483675415 38611.901513159 -24344.582162256 5454397775.2346
475	11601820 312 52441 52981 98.98342479974 99.98342479974 11 -62956.483675415 0 -62956.483675415 3963518836.7727
476	11602132 312 52441 52981 98.98342479974 99.98342479974 11 -62956.483675415 0 -62956.483675415 3963518836.7727
477	11602444 312 52441 52981 98.98342479974 99.98342479974 11 -62956.483675415 0 -62956.483675415 3963518836.7727
478	11602756 312 52441 52981 98.98342479974 99.98342479974 11 -56660.835307873 0 -56660.835307873 3210450257.7859
479	11603068 312 52441 52981 98.98342479974 99.98342479974 11 -56660.835307873 0 -56660.835307873 3210450257.7859
480	11603380 312 52441 52981 98.98342479974 99.98342479974 11 -56660.835307873 0 -56660.835307873 3210450257.7859
481	11603692 312 52441 52981 98.98342479974 99.98342479974 11 -56660.835307873 0 -56660.835307873 3210450257.7859
482	11604004 312 52441 52981 98.98342479974 99.98342479974 11 -56660.835307873 0 -56660.835307873 3210450257.7859
483	11604316 189 52497 53027 99 100 11 -43200 0 -43200 1866240000
484	11604505 189 52497 53027 99 100 11 -54400 0 -54400 2959360000
485	11604694 189 52497 53027 99 100 11 -54400 0 -54400 2959360000
486	11604883 189 52497 53027 99 100 11 -54400 0 -54400 2959360000
487	11605072 189 52497 53027 99 100 11 -54400 0 -54400 2959360000
488	11605261 189 52497 53027 99 100 11 -57600 0 -57600 3317760000
489	11605450 189 52497 53027 99 100 11 -57600 0 -57600 3317760000
490	11605639 189 52499 53029 99 100 11 -57600 0 -57600 3317760000
491	11605828 189 52499 53029 99 100 11 -57600 0 -57600 3317760000
492	11606017 189 52499 53029 99 100 11 -57600 0 -57600 3317760000
493	11606206 189 52499 53029 99 100 11 -57600 0 -57600 3317760000
494	11606395 189 52499 53029 99 100 11 -57600 0 -57600 3317760000
495	11606584 189 52499 53029 99 100 11 -57600 0 -57600 3317760000
496	11606773 189 52499 53029 99 100 11 -64000 0 -64000 4096000000
497	11606962 189 52499 53029 99 100 11 -64000 0 -64000 4096000000
498	11607151 189 52499 53029 99 100 11 -64000 0 -64000 4096000000
499	11607340 189 52500 53030 99 100 11 -57600 0 -57600 3317760000
500	11607529 189 52501 53031 99 100 11 -57600 0 -57600 3317760000
501	11607718 189 52501 53031 99 100 11 -57600 0 -57600 3317760000
502	11607907 189 52501 53031 99 100 11 -57600 0 -57600 3317760000
503	11608096 189 52501 53031 99 100 11 -57600 0 -57600 3317760000
504	11608285 189 52501 53031 99 100 11 -57600 0 -57600 3317760000
505	11608474 189 52501 53031 99 100 11 -57600 0 -57600 3317760000
506	11608663 189 52501 53031 99 100 11 -64000 0 -64000 4096000000
507	11608852 189 52501 53031 99 100 11 -64000 0 -64000 4096000000
508	11609041 189 52501 53031 99 100 11 -64000 0 -64000 4096000000
509	11609230 251 52502 53032 99.000064 100 11 -64004.096262161 0 -64004.096262161 4096524338.3359
510	11609481 251 52503 53032 99.000064 100 11 -64004.096262161 0 -64004.096262161 4096524338.3359
511	11609732 271 52504 53032 99.00006405 100 11 -64004.099462571 0 -64004.099462571 4096524748.0146
512	11610003 39 52504 52504 99.00006405 99.00006405 1 -64004.099462571 -64004.099462571 -64004.099462571 4096524748.0146
513	11610042 39 52504 52504 99.00006405 99.00006405 1 -64004.099462571 -64004.099462571 -64004.099462571 4096524748.0146
514	11610081 39 52504 52504 99.00006405 99.00006405 1 -64004.099462571 -64004.099462571 -64004.099462571 4096524748.0146
515	11610120 39 52504 52504 99.00006405 99.00006405 1 -57603.689516314 -57603.689516314 -57603.689516314 3318185045.8918
516	11610159 39 52504 52504 99.00006405 99.00006405 1 -57603.689516314 -57603.689516314 -57603.689516314 3318185045.8918
517	11610198 39 52504 52504 99.00006405 99.00006405 1 -57603.689516314 -57603.689516314 -57603.689516314 3318185045.8918
518	11610237 39 52504 52504 99.00006405 99.00006405 1 -57603.689516314 -57603.689516314 -57603.689516314 3318185045.8918
519	11610276 39 52504 52504 99.00006405 99.00006405 1 -57603.689516314 -57603.689516314 -57603.689516314 3318185045.8918
520	11610315 39 52504 52504 99.00006405 99.00006405 1 -57603.689516314 -57603.689516314 -57603.689516314 3318185045.8918
521	11610354 39 52504 52504 99.00006405 99.00006405 1 -54403.484543185 -54403.484543185 -54403.484543185 2959739130.4406
522	11610393 39 52504 52504 99.00006405 99.00006405 1 -54403.484543185 -54403.484543185 -54403.484543185 2959739130.4406
523	11610432 39 52504 52504 99.00006405 99.00006405 1 -43202.767137235 -43202.767137235 -43202.767137235 1866479088.3142
524	11610471 39 52504 52504 99.00006405 99.00006405 1 -43202.767137235 -43202.767137235 -43202.767137235 1866479088.3142
525	11610510 39 52504 52504 99.00006405 99.00006405 1 -43202.767137235 -43202.767137235 -43202.767137235 1866479088.3142
526	11610549 39 52504 52504 99.00006405 99.00006405 1 -43202.767137235 -43202.767137235 -43202.767137235 1866479088.3142
527	11610588 39 52504 52504 99.00006405 99.00006405 1 -43202.767137235 -43202.767137235 -43202.767137235 1866479088.3142
528	11610627 271 52504 53032 99.00006405 100 11 -43202.767137235 0 -43202.767137235 1866479088.3142
529	11610898 271 52505 53032 99.00006405 100 11 -64004.099462571 0 -64004.099462571 4096524748.0146
530	11611169 39 52505 52505 99.00006405 99.00006405 1 -64004.099462571 -64004.099462571 -64004.099462571 4096524748.0146
531	11611208 39 52505 52505 99.00006405 99.00006405 1 -64004.099462571 -64004.099462571 -64004.099462571 4096524748.0146
532	11611247 39 52505 52505 99.00006405 99.00006405 1 -64004.099462571 -64004.099462571 -64004.099462571 4096524748.0146
533	11611286 39 52505 52505 99.00006405 99.00006405 1 -57603.689516314 -57603.689516314 -57603.689516314 3318185045.8918
534	11611325 39 52505 52505 99.00006405 99.00006405 1 -57603.689516314 -57603.689516314 -57603.689516314 3318185045.8918
535	11611364 39 52505 52505 99.00006405 99.00006405 1 -57603.689516314 -57603.689516314 -57603.689516314 3318185045.8918
536	11611403 39 52505 52505 99.00006405 99.00006405 1 -57603.689516314 -57603.689516314 -57603.689516314 3318185045.8918
537	11611442 39 52505 52505 99.00006405 99.00006405 1 -57603.689516314 -57603.689516314 -57603.689516314 3318185045.8918
538	11611481 39 52505 52505 99.00006405 99.00006405 1 -57603.689516314 -57603.689516314 -57603.689516314 3318185045.8918
539	11611520 39 52505 52505 99.00006405 99.00006405 1 -54403.484543185 -54403.484543185 -54403.484543185 2959739130.4406
540	11611559 39 52505 52505 99.00006405 99.00006405 1 -54403.484543185 -54403.484543185 -54403.484543185 2959739130.4406
541	11611598 39 52505 52505 99.00006405 99.00006405 1 -43202.767137235 -43202.767137235 -43202.767137235 1866479088.3142

