file 10200131 1736028793                                        
version 3
run UL-0-20250104-19:13:04-82675
attr configname UL
attr datetime 20250104-19:13:04
attr datetimef 20250104-191304
attr experiment UL
attr inifile omnetppTest.ini
attr iterationvars ""
attr iterationvarsd ""
attr iterationvarsf ""
attr measurement ""
attr network TimeSyncUEUE
attr processid 82675
attr repetition 0
attr replication #0
attr resultdir results
attr runnumber 0
attr seedset 0
config image-path ../../../inet4.5-2/images
config *.TsnSwitchDomain1.gptp.gptpNodeType "\"MASTER_NODE\""
config *.TsnSwitchDomain1.gptp.masterPorts "[\"eth0\"]"
config *.TsnSwitchDomain1.gptp.slavePort "\"\""
config *.TsnSwitchDataNetwork.gptp.slavePort "\"eth0\""
config *.TsnSwitchDataNetwork.gptp.masterPorts []
config *.TsnSwitchDomain2.gptp.slavePort "\"eth0\""
config *.TsnSwitchDomain2.gptp.masterPorts []
config *.FGS.nwtt[*].gptp.domain[*].masterPorts "[\"eth0\"]"
config *.FGS.nwtt[*].gptp.domain[*].slavePort "\"tt0\""
config *.FGS.dstt[0].gptp.domain[*].masterPorts "[\"tt0\"]"
config *.FGS.dstt[0].gptp.domain[*].slavePort "\"eth0\""
config *.FGS.dstt[1].gptp.domain[*].masterPorts "[\"eth0\"]"
config *.FGS.dstt[1].gptp.domain[*].slavePort "\"tt1\""
config **.referenceClock "\"TsnSwitchDomain1.clock\""
config *.TsnSwitchDomain1.clock.displayStringTextFormat "\"time: %T\""
config *.TsnSwitchDataNetwork.clock.displayStringTextFormat "\"diff: %d\""
config *.TsnSwitchDomain2.clock.displayStringTextFormat "\"diff: %d\""
config network TimeSyncUEUE
config sim-time-limit 100s
config *.histogramContainer.histograms "{s1UL: \"../../../deterministic6g_data/PD-Wireless-5G-1/s1-UL_wall.xml\",\n\t\t\t\t\t\t\t\t\ts3UL: \"../../../deterministic6g_data/PD-Wireless-5G-1/s3-UL_wall.xml\",\n\t\t\t\t\t\t\t\t\ts4UL: \"../../../deterministic6g_data/PD-Wireless-5G-1/s4-UL_wall.xml\",\n\t\t\t\t\t\t\t\t\ts6UL: \"../../../deterministic6g_data/PD-Wireless-5G-1/s6-UL_wall.xml\",\n\t\t\t\t\t\t\t\t\ts7UL: \"../../../deterministic6g_data/PD-Wireless-5G-1/s7-UL_wall.xml\",\n\t\t\t\t\t\t\t\t\ts8UL: \"../../../deterministic6g_data/PD-Wireless-5G-1/s8-UL_wall.xml\",\n\t\t\t\t\t\t\t\t\ts9UL: \"../../../deterministic6g_data/PD-Wireless-5G-1/s9-UL_wall.xml\",\n\t\t\t\t\t\t\t\t\ts10DL: \"../../../deterministic6g_data/PD-Wireless-5G-1/s10-DL_wall.xml\",\n\t\t\t\t\t\t\t\t\ts19DL: \"../../../deterministic6g_data/PD-Wireless-5G-1/s19-DL_wall.xml\",\n\t\t\t\t\t\t\t\t\ts20UL: \"../../../deterministic6g_data/PD-Wireless-5G-1/s20-UL_wall.xml\",\n\t\t\t\t\t\t\t\t\ts22UL: \"../../../deterministic6g_data/PD-Wireless-5G-1/s22-UL_wall.xml\",\n\t\t\t\t\t\t\t\t\ts23DL: \"../../../deterministic6g_data/PD-Wireless-5G-1/s23-DL_wall.xml\",\n\t\t\t\t\t\t\t\t\ts24UL: \"../../../deterministic6g_data/PD-Wireless-5G-1/s24-UL_wall.xml\",\n\t\t\t\t\t\t\t\t\ts25DL: \"../../../deterministic6g_data/PD-Wireless-5G-1/s25-DL_wall.xml\",\n\t\t\t\t\t\t\t\t\ts26UL: \"../../../deterministic6g_data/PD-Wireless-5G-1/s26-UL_wall.xml\"}"
config *.FGS.d*.delayUplink "rngProvider(\"histogramContainer\",\"s1UL\")"
config *.FGS.n*.delayDownlink "rngProvider(\"histogramContainer\",\"s10DL\")"
config *.FGS.d*.delayD2D "rngProvider(\"histogramContainer\",\"s1UL\")+rngProvider(\"histogramContainer\",\"s10DL\")"
config *.**.hasTimeSynchronization true
config *.visualizer.typename IntegratedMultiCanvasVisualizer
config *.visualizer.infoVisualizer[*].displayInfos true
config *.visualizer.dataLinkVisualizer[0].displayLinks true
config *.visualizer.dataLinkVisualizer[0].activityLevel "\"protocol\""
config *.visualizer.dataLinkVisualizer[0].packetFilter "\"GptpSync\""
config *.visualizer.dataLinkVisualizer[0].lineColor "\"blue2\""
config *.visualizer.numInfoVisualizers 3
config *.visualizer.infoVisualizer[0].modules "\"*.TsnSwitchDataNetwork.clock\""
config *.visualizer.infoVisualizer[1].modules "\"*.TsnSwitchDomain1.clock\""
config *.visualizer.infoVisualizer[1].placementHint "\"topLeft\""
config *.visualizer.infoVisualizer[2].modules "\"*.TsnSwitchDomain2*.clock\""
config *.visualizer.infoVisualizer[2].placementHint "\"topRight\""

vector 0 TimeSyncUEUE.TsnSwitchDomain1.eth[0].macLayer.queue queueLength:vector ETV
attr autoWarmupFilter false
attr interpolationmode sample-hold
attr recordingmode vector
attr source "warmup(atomic(constant0(packetPushEnded) + count(packetPushStarted) - count(packetPulled) - count(packetRemoved) - count(packetDropped)))"
attr title "queue length"
attr unit pk
vector 1 TimeSyncUEUE.TsnSwitchDomain1.eth[0].macLayer.queue queueBitLength:vector ETV
attr autoWarmupFilter false
attr interpolationmode sample-hold
attr recordingmode vector
attr source "warmup(atomic(constant0(packetPushEnded) + sum(packetLength(packetPushStarted)) - sum(packetLength(packetPulled)) - sum(packetLength(packetRemoved)) - sum(packetLength(packetDropped))))"
attr title "queue bit length"
attr unit b
vector 2 TimeSyncUEUE.TsnSwitchDomain1.eth[0].phyLayer.interFrameGapInserter interpacketGap:vector ETV
attr interpolationmode sample-hold
attr recordingmode vector
attr source "count(interpacketGapStarted) - count(interpacketGapEnded)"
attr title "interpacket gap state"
attr type int
vector 3 TimeSyncUEUE.TsnSwitchDomain1.eth[0].phyLayer.transmitter transmitting:vector ETV
attr interpolationmode sample-hold
attr recordingmode vector
attr source "count(transmissionStarted) - count(transmissionEnded)"
attr title "transmitting state"
attr type int
vector 4 TimeSyncUEUE.TsnSwitchDomain1.udp passedUpPk:vector(count) ETV
attr interpolationmode none
attr recordingmode vector(count)
attr source packetSentToUpper
attr title "packets passed up, count"
vector 5 TimeSyncUEUE.TsnSwitchDomain1.udp droppedPkWrongPort:vector(count) ETV
attr interpolationmode none
attr recordingmode vector(count)
attr source packetDropReasonIsNoPortFound(packetDropped)
attr title "packets dropped (wrong port), count"
vector 6 TimeSyncUEUE.TsnSwitchDomain1.udp droppedPkBadChecksum:vector(count) ETV
attr interpolationmode none
attr recordingmode vector(count)
attr source packetDropReasonIsIncorrectlyReceived(packetDropped)
attr title "packets dropped (checksum error), count"
vector 7 TimeSyncUEUE.TsnSwitchDomain2.eth[0].macLayer.queue queueLength:vector ETV
attr autoWarmupFilter false
attr interpolationmode sample-hold
attr recordingmode vector
attr source "warmup(atomic(constant0(packetPushEnded) + count(packetPushStarted) - count(packetPulled) - count(packetRemoved) - count(packetDropped)))"
attr title "queue length"
attr unit pk
vector 8 TimeSyncUEUE.TsnSwitchDomain2.eth[0].macLayer.queue queueBitLength:vector ETV
attr autoWarmupFilter false
attr interpolationmode sample-hold
attr recordingmode vector
attr source "warmup(atomic(constant0(packetPushEnded) + sum(packetLength(packetPushStarted)) - sum(packetLength(packetPulled)) - sum(packetLength(packetRemoved)) - sum(packetLength(packetDropped))))"
attr title "queue bit length"
attr unit b
vector 9 TimeSyncUEUE.TsnSwitchDomain2.eth[0].phyLayer.interFrameGapInserter interpacketGap:vector ETV
attr interpolationmode sample-hold
attr recordingmode vector
attr source "count(interpacketGapStarted) - count(interpacketGapEnded)"
attr title "interpacket gap state"
attr type int
vector 10 TimeSyncUEUE.TsnSwitchDomain2.eth[0].phyLayer.transmitter transmitting:vector ETV
attr interpolationmode sample-hold
attr recordingmode vector
attr source "count(transmissionStarted) - count(transmissionEnded)"
attr title "transmitting state"
attr type int
vector 11 TimeSyncUEUE.TsnSwitchDomain2.udp passedUpPk:vector(count) ETV
attr interpolationmode none
attr recordingmode vector(count)
attr source packetSentToUpper
attr title "packets passed up, count"
vector 12 TimeSyncUEUE.TsnSwitchDomain2.udp droppedPkWrongPort:vector(count) ETV
attr interpolationmode none
attr recordingmode vector(count)
attr source packetDropReasonIsNoPortFound(packetDropped)
attr title "packets dropped (wrong port), count"
vector 13 TimeSyncUEUE.TsnSwitchDomain2.udp droppedPkBadChecksum:vector(count) ETV
attr interpolationmode none
attr recordingmode vector(count)
attr source packetDropReasonIsIncorrectlyReceived(packetDropped)
attr title "packets dropped (checksum error), count"
vector 14 TimeSyncUEUE.TsnSwitchDataNetwork.eth[0].macLayer.queue queueLength:vector ETV
attr autoWarmupFilter false
attr interpolationmode sample-hold
attr recordingmode vector
attr source "warmup(atomic(constant0(packetPushEnded) + count(packetPushStarted) - count(packetPulled) - count(packetRemoved) - count(packetDropped)))"
attr title "queue length"
attr unit pk
vector 15 TimeSyncUEUE.TsnSwitchDataNetwork.eth[0].macLayer.queue queueBitLength:vector ETV
attr autoWarmupFilter false
attr interpolationmode sample-hold
attr recordingmode vector
attr source "warmup(atomic(constant0(packetPushEnded) + sum(packetLength(packetPushStarted)) - sum(packetLength(packetPulled)) - sum(packetLength(packetRemoved)) - sum(packetLength(packetDropped))))"
attr title "queue bit length"
attr unit b
vector 16 TimeSyncUEUE.TsnSwitchDataNetwork.eth[0].phyLayer.interFrameGapInserter interpacketGap:vector ETV
attr interpolationmode sample-hold
attr recordingmode vector
attr source "count(interpacketGapStarted) - count(interpacketGapEnded)"
attr title "interpacket gap state"
attr type int
vector 17 TimeSyncUEUE.TsnSwitchDataNetwork.eth[0].phyLayer.transmitter transmitting:vector ETV
attr interpolationmode sample-hold
attr recordingmode vector
attr source "count(transmissionStarted) - count(transmissionEnded)"
attr title "transmitting state"
attr type int
vector 18 TimeSyncUEUE.TsnSwitchDataNetwork.udp passedUpPk:vector(count) ETV
attr interpolationmode none
attr recordingmode vector(count)
attr source packetSentToUpper
attr title "packets passed up, count"
vector 19 TimeSyncUEUE.TsnSwitchDataNetwork.udp droppedPkWrongPort:vector(count) ETV
attr interpolationmode none
attr recordingmode vector(count)
attr source packetDropReasonIsNoPortFound(packetDropped)
attr title "packets dropped (wrong port), count"
vector 20 TimeSyncUEUE.TsnSwitchDataNetwork.udp droppedPkBadChecksum:vector(count) ETV
attr interpolationmode none
attr recordingmode vector(count)
attr source packetDropReasonIsIncorrectlyReceived(packetDropped)
attr title "packets dropped (checksum error), count"
vector 21 TimeSyncUEUE.FGS.dstt[0].eth[0].macLayer.queue queueLength:vector ETV
attr autoWarmupFilter false
attr interpolationmode sample-hold
attr recordingmode vector
attr source "warmup(atomic(constant0(packetPushEnded) + count(packetPushStarted) - count(packetPulled) - count(packetRemoved) - count(packetDropped)))"
attr title "queue length"
attr unit pk
vector 22 TimeSyncUEUE.FGS.dstt[0].eth[0].macLayer.queue queueBitLength:vector ETV
attr autoWarmupFilter false
attr interpolationmode sample-hold
attr recordingmode vector
attr source "warmup(atomic(constant0(packetPushEnded) + sum(packetLength(packetPushStarted)) - sum(packetLength(packetPulled)) - sum(packetLength(packetRemoved)) - sum(packetLength(packetDropped))))"
attr title "queue bit length"
attr unit b
vector 23 TimeSyncUEUE.FGS.dstt[0].eth[0].phyLayer.interFrameGapInserter interpacketGap:vector ETV
attr interpolationmode sample-hold
attr recordingmode vector
attr source "count(interpacketGapStarted) - count(interpacketGapEnded)"
attr title "interpacket gap state"
attr type int
vector 24 TimeSyncUEUE.FGS.dstt[0].eth[0].phyLayer.transmitter transmitting:vector ETV
attr interpolationmode sample-hold
attr recordingmode vector
attr source "count(transmissionStarted) - count(transmissionEnded)"
attr title "transmitting state"
attr type int
vector 25 TimeSyncUEUE.FGS.dstt[0].tt[0].macLayer.queue queueLength:vector ETV
attr autoWarmupFilter false
attr interpolationmode sample-hold
attr recordingmode vector
attr source "warmup(atomic(constant0(packetPushEnded) + count(packetPushStarted) - count(packetPulled) - count(packetRemoved) - count(packetDropped)))"
attr title "queue length"
attr unit pk
vector 26 TimeSyncUEUE.FGS.dstt[0].tt[0].macLayer.queue queueBitLength:vector ETV
attr autoWarmupFilter false
attr interpolationmode sample-hold
attr recordingmode vector
attr source "warmup(atomic(constant0(packetPushEnded) + sum(packetLength(packetPushStarted)) - sum(packetLength(packetPulled)) - sum(packetLength(packetRemoved)) - sum(packetLength(packetDropped))))"
attr title "queue bit length"
attr unit b
vector 27 TimeSyncUEUE.FGS.dstt[0].tt[0].phyLayer.interFrameGapInserter interpacketGap:vector ETV
attr interpolationmode sample-hold
attr recordingmode vector
attr source "count(interpacketGapStarted) - count(interpacketGapEnded)"
attr title "interpacket gap state"
attr type int
vector 28 TimeSyncUEUE.FGS.dstt[0].tt[0].phyLayer.transmitter transmitting:vector ETV
attr interpolationmode sample-hold
attr recordingmode vector
attr source "count(transmissionStarted) - count(transmissionEnded)"
attr title "transmitting state"
attr type int
vector 29 TimeSyncUEUE.FGS.dstt[0].tt[1].macLayer.queue queueLength:vector ETV
attr autoWarmupFilter false
attr interpolationmode sample-hold
attr recordingmode vector
attr source "warmup(atomic(constant0(packetPushEnded) + count(packetPushStarted) - count(packetPulled) - count(packetRemoved) - count(packetDropped)))"
attr title "queue length"
attr unit pk
vector 30 TimeSyncUEUE.FGS.dstt[0].tt[1].macLayer.queue queueBitLength:vector ETV
attr autoWarmupFilter false
attr interpolationmode sample-hold
attr recordingmode vector
attr source "warmup(atomic(constant0(packetPushEnded) + sum(packetLength(packetPushStarted)) - sum(packetLength(packetPulled)) - sum(packetLength(packetRemoved)) - sum(packetLength(packetDropped))))"
attr title "queue bit length"
attr unit b
vector 31 TimeSyncUEUE.FGS.dstt[0].tt[1].phyLayer.interFrameGapInserter interpacketGap:vector ETV
attr interpolationmode sample-hold
attr recordingmode vector
attr source "count(interpacketGapStarted) - count(interpacketGapEnded)"
attr title "interpacket gap state"
attr type int
vector 32 TimeSyncUEUE.FGS.dstt[0].tt[1].phyLayer.transmitter transmitting:vector ETV
attr interpolationmode sample-hold
attr recordingmode vector
attr source "count(transmissionStarted) - count(transmissionEnded)"
attr title "transmitting state"
attr type int
vector 33 TimeSyncUEUE.FGS.dstt[1].eth[0].macLayer.queue queueLength:vector ETV
attr autoWarmupFilter false
attr interpolationmode sample-hold
attr recordingmode vector
attr source "warmup(atomic(constant0(packetPushEnded) + count(packetPushStarted) - count(packetPulled) - count(packetRemoved) - count(packetDropped)))"
attr title "queue length"
attr unit pk
vector 34 TimeSyncUEUE.FGS.dstt[1].eth[0].macLayer.queue queueBitLength:vector ETV
attr autoWarmupFilter false
attr interpolationmode sample-hold
attr recordingmode vector
attr source "warmup(atomic(constant0(packetPushEnded) + sum(packetLength(packetPushStarted)) - sum(packetLength(packetPulled)) - sum(packetLength(packetRemoved)) - sum(packetLength(packetDropped))))"
attr title "queue bit length"
attr unit b
vector 35 TimeSyncUEUE.FGS.dstt[1].eth[0].phyLayer.interFrameGapInserter interpacketGap:vector ETV
attr interpolationmode sample-hold
attr recordingmode vector
attr source "count(interpacketGapStarted) - count(interpacketGapEnded)"
attr title "interpacket gap state"
attr type int
vector 36 TimeSyncUEUE.FGS.dstt[1].eth[0].phyLayer.transmitter transmitting:vector ETV
attr interpolationmode sample-hold
attr recordingmode vector
attr source "count(transmissionStarted) - count(transmissionEnded)"
attr title "transmitting state"
attr type int
vector 37 TimeSyncUEUE.FGS.dstt[1].tt[0].macLayer.queue queueLength:vector ETV
attr autoWarmupFilter false
attr interpolationmode sample-hold
attr recordingmode vector
attr source "warmup(atomic(constant0(packetPushEnded) + count(packetPushStarted) - count(packetPulled) - count(packetRemoved) - count(packetDropped)))"
attr title "queue length"
attr unit pk
vector 38 TimeSyncUEUE.FGS.dstt[1].tt[0].macLayer.queue queueBitLength:vector ETV
attr autoWarmupFilter false
attr interpolationmode sample-hold
attr recordingmode vector
attr source "warmup(atomic(constant0(packetPushEnded) + sum(packetLength(packetPushStarted)) - sum(packetLength(packetPulled)) - sum(packetLength(packetRemoved)) - sum(packetLength(packetDropped))))"
attr title "queue bit length"
attr unit b
vector 39 TimeSyncUEUE.FGS.dstt[1].tt[0].phyLayer.interFrameGapInserter interpacketGap:vector ETV
attr interpolationmode sample-hold
attr recordingmode vector
attr source "count(interpacketGapStarted) - count(interpacketGapEnded)"
attr title "interpacket gap state"
attr type int
vector 40 TimeSyncUEUE.FGS.dstt[1].tt[0].phyLayer.transmitter transmitting:vector ETV
attr interpolationmode sample-hold
attr recordingmode vector
attr source "count(transmissionStarted) - count(transmissionEnded)"
attr title "transmitting state"
attr type int
vector 41 TimeSyncUEUE.FGS.dstt[1].tt[1].macLayer.queue queueLength:vector ETV
attr autoWarmupFilter false
attr interpolationmode sample-hold
attr recordingmode vector
attr source "warmup(atomic(constant0(packetPushEnded) + count(packetPushStarted) - count(packetPulled) - count(packetRemoved) - count(packetDropped)))"
attr title "queue length"
attr unit pk
vector 42 TimeSyncUEUE.FGS.dstt[1].tt[1].macLayer.queue queueBitLength:vector ETV
attr autoWarmupFilter false
attr interpolationmode sample-hold
attr recordingmode vector
attr source "warmup(atomic(constant0(packetPushEnded) + sum(packetLength(packetPushStarted)) - sum(packetLength(packetPulled)) - sum(packetLength(packetRemoved)) - sum(packetLength(packetDropped))))"
attr title "queue bit length"
attr unit b
vector 43 TimeSyncUEUE.FGS.dstt[1].tt[1].phyLayer.interFrameGapInserter interpacketGap:vector ETV
attr interpolationmode sample-hold
attr recordingmode vector
attr source "count(interpacketGapStarted) - count(interpacketGapEnded)"
attr title "interpacket gap state"
attr type int
vector 44 TimeSyncUEUE.FGS.dstt[1].tt[1].phyLayer.transmitter transmitting:vector ETV
attr interpolationmode sample-hold
attr recordingmode vector
attr source "count(transmissionStarted) - count(transmissionEnded)"
attr title "transmitting state"
attr type int
vector 45 TimeSyncUEUE.FGS.nwtt[0].eth[0].macLayer.queue queueLength:vector ETV
attr autoWarmupFilter false
attr interpolationmode sample-hold
attr recordingmode vector
attr source "warmup(atomic(constant0(packetPushEnded) + count(packetPushStarted) - count(packetPulled) - count(packetRemoved) - count(packetDropped)))"
attr title "queue length"
attr unit pk
vector 46 TimeSyncUEUE.FGS.nwtt[0].eth[0].macLayer.queue queueBitLength:vector ETV
attr autoWarmupFilter false
attr interpolationmode sample-hold
attr recordingmode vector
attr source "warmup(atomic(constant0(packetPushEnded) + sum(packetLength(packetPushStarted)) - sum(packetLength(packetPulled)) - sum(packetLength(packetRemoved)) - sum(packetLength(packetDropped))))"
attr title "queue bit length"
attr unit b
vector 47 TimeSyncUEUE.FGS.nwtt[0].eth[0].phyLayer.interFrameGapInserter interpacketGap:vector ETV
attr interpolationmode sample-hold
attr recordingmode vector
attr source "count(interpacketGapStarted) - count(interpacketGapEnded)"
attr title "interpacket gap state"
attr type int
vector 48 TimeSyncUEUE.FGS.nwtt[0].eth[0].phyLayer.transmitter transmitting:vector ETV
attr interpolationmode sample-hold
attr recordingmode vector
attr source "count(transmissionStarted) - count(transmissionEnded)"
attr title "transmitting state"
attr type int
vector 49 TimeSyncUEUE.FGS.nwtt[0].tt[0].macLayer.queue queueLength:vector ETV
attr autoWarmupFilter false
attr interpolationmode sample-hold
attr recordingmode vector
attr source "warmup(atomic(constant0(packetPushEnded) + count(packetPushStarted) - count(packetPulled) - count(packetRemoved) - count(packetDropped)))"
attr title "queue length"
attr unit pk
vector 50 TimeSyncUEUE.FGS.nwtt[0].tt[0].macLayer.queue queueBitLength:vector ETV
attr autoWarmupFilter false
attr interpolationmode sample-hold
attr recordingmode vector
attr source "warmup(atomic(constant0(packetPushEnded) + sum(packetLength(packetPushStarted)) - sum(packetLength(packetPulled)) - sum(packetLength(packetRemoved)) - sum(packetLength(packetDropped))))"
attr title "queue bit length"
attr unit b
vector 51 TimeSyncUEUE.FGS.nwtt[0].tt[0].phyLayer.interFrameGapInserter interpacketGap:vector ETV
attr interpolationmode sample-hold
attr recordingmode vector
attr source "count(interpacketGapStarted) - count(interpacketGapEnded)"
attr title "interpacket gap state"
attr type int
vector 52 TimeSyncUEUE.FGS.nwtt[0].tt[0].phyLayer.transmitter transmitting:vector ETV
attr interpolationmode sample-hold
attr recordingmode vector
attr source "count(transmissionStarted) - count(transmissionEnded)"
attr title "transmitting state"
attr type int
vector 53 TimeSyncUEUE.FGS.nwtt[0].tt[1].macLayer.queue queueLength:vector ETV
attr autoWarmupFilter false
attr interpolationmode sample-hold
attr recordingmode vector
attr source "warmup(atomic(constant0(packetPushEnded) + count(packetPushStarted) - count(packetPulled) - count(packetRemoved) - count(packetDropped)))"
attr title "queue length"
attr unit pk
vector 54 TimeSyncUEUE.FGS.nwtt[0].tt[1].macLayer.queue queueBitLength:vector ETV
attr autoWarmupFilter false
attr interpolationmode sample-hold
attr recordingmode vector
attr source "warmup(atomic(constant0(packetPushEnded) + sum(packetLength(packetPushStarted)) - sum(packetLength(packetPulled)) - sum(packetLength(packetRemoved)) - sum(packetLength(packetDropped))))"
attr title "queue bit length"
attr unit b
vector 55 TimeSyncUEUE.FGS.nwtt[0].tt[1].phyLayer.interFrameGapInserter interpacketGap:vector ETV
attr interpolationmode sample-hold
attr recordingmode vector
attr source "count(interpacketGapStarted) - count(interpacketGapEnded)"
attr title "interpacket gap state"
attr type int
vector 56 TimeSyncUEUE.FGS.nwtt[0].tt[1].phyLayer.transmitter transmitting:vector ETV
attr interpolationmode sample-hold
attr recordingmode vector
attr source "count(transmissionStarted) - count(transmissionEnded)"
attr title "transmitting state"
attr type int
vector 57 TimeSyncUEUE.TsnSwitchDomain1.clock timeChanged:vector ETV
attr interpolationmode linear
attr recordingmode vector
attr title "Clock time"
vector 58 TimeSyncUEUE.TsnSwitchDomain2.clock timeChanged:vector ETV
attr interpolationmode linear
attr recordingmode vector
attr title "Clock time"
vector 59 TimeSyncUEUE.TsnSwitchDataNetwork.clock timeChanged:vector ETV
attr interpolationmode linear
attr recordingmode vector
attr title "Clock time"
vector 60 TimeSyncUEUE.FGS.dstt[0].clock timeChanged:vector ETV
attr interpolationmode linear
attr recordingmode vector
attr title "Clock time"
vector 61 TimeSyncUEUE.FGS.dstt[1].clock timeChanged:vector ETV
attr interpolationmode linear
attr recordingmode vector
attr title "Clock time"
vector 62 TimeSyncUEUE.FGS.nwtt[0].clock timeChanged:vector ETV
attr interpolationmode linear
attr recordingmode vector
attr title "Clock time"
vector 63 TimeSyncUEUE.TsnSwitchDomain2.ethernet.macHeaderInserter incomingPacketLengths:vector ETV
attr interpolationmode none
attr recordingmode vector
attr source "packetLength(merge(packetPushedIn, packetPulledIn))"
attr title "incoming packet lengths"
attr unit b
vector 64 TimeSyncUEUE.TsnSwitchDomain2.ethernet.macHeaderInserter outgoingPacketLengths:vector ETV
attr interpolationmode none
attr recordingmode vector
attr source "packetLength(merge(packetPushedOut, packetPulledOut))"
attr title "outgoing packet lengths"
attr unit b
vector 65 TimeSyncUEUE.TsnSwitchDomain2.ethernet.paddingInserter incomingPacketLengths:vector ETV
attr interpolationmode none
attr recordingmode vector
attr source "packetLength(merge(packetPushedIn, packetPulledIn))"
attr title "incoming packet lengths"
attr unit b
vector 66 TimeSyncUEUE.TsnSwitchDomain2.ethernet.paddingInserter outgoingPacketLengths:vector ETV
attr interpolationmode none
attr recordingmode vector
attr source "packetLength(merge(packetPushedOut, packetPulledOut))"
attr title "outgoing packet lengths"
attr unit b
vector 67 TimeSyncUEUE.TsnSwitchDomain2.ethernet.fcsInserter incomingPacketLengths:vector ETV
attr interpolationmode none
attr recordingmode vector
attr source "packetLength(merge(packetPushedIn, packetPulledIn))"
attr title "incoming packet lengths"
attr unit b
vector 68 TimeSyncUEUE.TsnSwitchDomain2.ethernet.fcsInserter outgoingPacketLengths:vector ETV
attr interpolationmode none
attr recordingmode vector
attr source "packetLength(merge(packetPushedOut, packetPulledOut))"
attr title "outgoing packet lengths"
attr unit b
vector 69 TimeSyncUEUE.TsnSwitchDomain2.eth[0].macLayer.queue incomingPacketLengths:vector ETV
attr interpolationmode none
attr recordingmode vector
attr source packetLength(packetPushStarted)
attr title "incoming packet lengths"
attr unit b
vector 70 TimeSyncUEUE.TsnSwitchDataNetwork.ethernet.macHeaderInserter incomingPacketLengths:vector ETV
attr interpolationmode none
attr recordingmode vector
attr source "packetLength(merge(packetPushedIn, packetPulledIn))"
attr title "incoming packet lengths"
attr unit b
vector 71 TimeSyncUEUE.TsnSwitchDataNetwork.ethernet.macHeaderInserter outgoingPacketLengths:vector ETV
attr interpolationmode none
attr recordingmode vector
attr source "packetLength(merge(packetPushedOut, packetPulledOut))"
attr title "outgoing packet lengths"
attr unit b
vector 72 TimeSyncUEUE.TsnSwitchDataNetwork.ethernet.paddingInserter incomingPacketLengths:vector ETV
attr interpolationmode none
attr recordingmode vector
attr source "packetLength(merge(packetPushedIn, packetPulledIn))"
attr title "incoming packet lengths"
attr unit b
vector 73 TimeSyncUEUE.TsnSwitchDataNetwork.ethernet.paddingInserter outgoingPacketLengths:vector ETV
attr interpolationmode none
attr recordingmode vector
attr source "packetLength(merge(packetPushedOut, packetPulledOut))"
attr title "outgoing packet lengths"
attr unit b
vector 74 TimeSyncUEUE.TsnSwitchDataNetwork.ethernet.fcsInserter incomingPacketLengths:vector ETV
attr interpolationmode none
attr recordingmode vector
attr source "packetLength(merge(packetPushedIn, packetPulledIn))"
attr title "incoming packet lengths"
attr unit b
vector 75 TimeSyncUEUE.TsnSwitchDataNetwork.ethernet.fcsInserter outgoingPacketLengths:vector ETV
attr interpolationmode none
attr recordingmode vector
attr source "packetLength(merge(packetPushedOut, packetPulledOut))"
attr title "outgoing packet lengths"
attr unit b
vector 76 TimeSyncUEUE.TsnSwitchDataNetwork.eth[0].macLayer.queue incomingPacketLengths:vector ETV
attr interpolationmode none
attr recordingmode vector
attr source packetLength(packetPushStarted)
attr title "incoming packet lengths"
attr unit b
vector 77 TimeSyncUEUE.FGS.dstt[0].bridging.streamCoder.encoder incomingPacketLengths:vector ETV
attr interpolationmode none
attr recordingmode vector
attr source "packetLength(merge(packetPushedIn, packetPulledIn))"
attr title "incoming packet lengths"
attr unit b
vector 78 TimeSyncUEUE.FGS.dstt[0].bridging.streamCoder.encoder outgoingPacketLengths:vector ETV
attr interpolationmode none
attr recordingmode vector
attr source "packetLength(merge(packetPushedOut, packetPulledOut))"
attr title "outgoing packet lengths"
attr unit b
vector 79 TimeSyncUEUE.TsnSwitchDomain2.eth[0].macLayer.queue queueingTime:vector ETV
attr interpolationmode none
attr recordingmode vector
attr source queueingTime(packetPulled)
attr title "queueing times"
attr unit s
vector 80 TimeSyncUEUE.TsnSwitchDomain2.eth[0].macLayer.queue outgoingPacketLengths:vector ETV
attr interpolationmode none
attr recordingmode vector
attr source packetLength(packetPulled)
attr title "outgoing packet lengths"
attr unit b
vector 81 TimeSyncUEUE.TsnSwitchDomain2.eth[0].macLayer.server incomingPacketLengths:vector ETV
attr interpolationmode none
attr recordingmode vector
attr source packetLength(packetPulled)
attr title "incoming packet lengths"
attr unit b
vector 82 TimeSyncUEUE.TsnSwitchDomain2.eth[0].macLayer.server outgoingPacketLengths:vector ETV
attr interpolationmode none
attr recordingmode vector
attr source packetLength(packetPushed)
attr title "outgoing packet lengths"
attr unit b
vector 83 TimeSyncUEUE.TsnSwitchDomain2.eth[0].macLayer.outboundEmitter incomingPacketLengths:vector ETV
attr interpolationmode none
attr recordingmode vector
attr source "packetLength(merge(packetPushedIn, packetPulledIn))"
attr title "incoming packet lengths"
attr unit b
vector 84 TimeSyncUEUE.TsnSwitchDomain2.eth[0].macLayer.outboundEmitter outgoingPacketLengths:vector ETV
attr interpolationmode none
attr recordingmode vector
attr source "packetLength(merge(packetPushedOut, packetPulledOut))"
attr title "outgoing packet lengths"
attr unit b
vector 85 TimeSyncUEUE.TsnSwitchDomain2.eth[0].phyLayer.phyHeaderInserter incomingPacketLengths:vector ETV
attr interpolationmode none
attr recordingmode vector
attr source "packetLength(merge(packetPushedIn, packetPulledIn))"
attr title "incoming packet lengths"
attr unit b
vector 86 TimeSyncUEUE.TsnSwitchDomain2.eth[0].phyLayer.phyHeaderInserter outgoingPacketLengths:vector ETV
attr interpolationmode none
attr recordingmode vector
attr source "packetLength(merge(packetPushedOut, packetPulledOut))"
attr title "outgoing packet lengths"
attr unit b
vector 87 TimeSyncUEUE.TsnSwitchDomain2.eth[0].phyLayer.outboundEmitter incomingPacketLengths:vector ETV
attr interpolationmode none
attr recordingmode vector
attr source "packetLength(merge(packetPushedIn, packetPulledIn))"
attr title "incoming packet lengths"
attr unit b
vector 88 TimeSyncUEUE.TsnSwitchDomain2.eth[0].phyLayer.outboundEmitter outgoingPacketLengths:vector ETV
attr interpolationmode none
attr recordingmode vector
attr source "packetLength(merge(packetPushedOut, packetPulledOut))"
attr title "outgoing packet lengths"
attr unit b
vector 89 TimeSyncUEUE.TsnSwitchDataNetwork.eth[0].macLayer.queue queueingTime:vector ETV
attr interpolationmode none
attr recordingmode vector
attr source queueingTime(packetPulled)
attr title "queueing times"
attr unit s
vector 90 TimeSyncUEUE.TsnSwitchDataNetwork.eth[0].macLayer.queue outgoingPacketLengths:vector ETV
attr interpolationmode none
attr recordingmode vector
attr source packetLength(packetPulled)
attr title "outgoing packet lengths"
attr unit b
vector 91 TimeSyncUEUE.TsnSwitchDataNetwork.eth[0].macLayer.server incomingPacketLengths:vector ETV
attr interpolationmode none
attr recordingmode vector
attr source packetLength(packetPulled)
attr title "incoming packet lengths"
attr unit b
vector 92 TimeSyncUEUE.TsnSwitchDataNetwork.eth[0].macLayer.server outgoingPacketLengths:vector ETV
attr interpolationmode none
attr recordingmode vector
attr source packetLength(packetPushed)
attr title "outgoing packet lengths"
attr unit b
vector 93 TimeSyncUEUE.TsnSwitchDataNetwork.eth[0].macLayer.outboundEmitter incomingPacketLengths:vector ETV
attr interpolationmode none
attr recordingmode vector
attr source "packetLength(merge(packetPushedIn, packetPulledIn))"
attr title "incoming packet lengths"
attr unit b
vector 94 TimeSyncUEUE.TsnSwitchDataNetwork.eth[0].macLayer.outboundEmitter outgoingPacketLengths:vector ETV
attr interpolationmode none
attr recordingmode vector
attr source "packetLength(merge(packetPushedOut, packetPulledOut))"
attr title "outgoing packet lengths"
attr unit b
vector 95 TimeSyncUEUE.TsnSwitchDataNetwork.eth[0].phyLayer.phyHeaderInserter incomingPacketLengths:vector ETV
attr interpolationmode none
attr recordingmode vector
attr source "packetLength(merge(packetPushedIn, packetPulledIn))"
attr title "incoming packet lengths"
attr unit b
vector 96 TimeSyncUEUE.TsnSwitchDataNetwork.eth[0].phyLayer.phyHeaderInserter outgoingPacketLengths:vector ETV
attr interpolationmode none
attr recordingmode vector
attr source "packetLength(merge(packetPushedOut, packetPulledOut))"
attr title "outgoing packet lengths"
attr unit b
vector 97 TimeSyncUEUE.TsnSwitchDataNetwork.eth[0].phyLayer.outboundEmitter incomingPacketLengths:vector ETV
attr interpolationmode none
attr recordingmode vector
attr source "packetLength(merge(packetPushedIn, packetPulledIn))"
attr title "incoming packet lengths"
attr unit b
vector 98 TimeSyncUEUE.TsnSwitchDataNetwork.eth[0].phyLayer.outboundEmitter outgoingPacketLengths:vector ETV
attr interpolationmode none
attr recordingmode vector
attr source "packetLength(merge(packetPushedOut, packetPulledOut))"
attr title "outgoing packet lengths"
attr unit b
vector 99 TimeSyncUEUE.FGS.dstt[0].ethernet.macHeaderInserter incomingPacketLengths:vector ETV
attr interpolationmode none
attr recordingmode vector
attr source "packetLength(merge(packetPushedIn, packetPulledIn))"
attr title "incoming packet lengths"
attr unit b
vector 100 TimeSyncUEUE.FGS.dstt[0].ethernet.macHeaderInserter outgoingPacketLengths:vector ETV
attr interpolationmode none
attr recordingmode vector
attr source "packetLength(merge(packetPushedOut, packetPulledOut))"
attr title "outgoing packet lengths"
attr unit b
vector 101 TimeSyncUEUE.FGS.dstt[0].ethernet.paddingInserter incomingPacketLengths:vector ETV
attr interpolationmode none
attr recordingmode vector
attr source "packetLength(merge(packetPushedIn, packetPulledIn))"
attr title "incoming packet lengths"
attr unit b
vector 102 TimeSyncUEUE.FGS.dstt[0].ethernet.paddingInserter outgoingPacketLengths:vector ETV
attr interpolationmode none
attr recordingmode vector
attr source "packetLength(merge(packetPushedOut, packetPulledOut))"
attr title "outgoing packet lengths"
attr unit b
vector 103 TimeSyncUEUE.FGS.dstt[0].ethernet.fcsInserter incomingPacketLengths:vector ETV
attr interpolationmode none
attr recordingmode vector
attr source "packetLength(merge(packetPushedIn, packetPulledIn))"
attr title "incoming packet lengths"
attr unit b
vector 104 TimeSyncUEUE.FGS.dstt[0].ethernet.fcsInserter outgoingPacketLengths:vector ETV
attr interpolationmode none
attr recordingmode vector
attr source "packetLength(merge(packetPushedOut, packetPulledOut))"
attr title "outgoing packet lengths"
attr unit b
vector 105 TimeSyncUEUE.FGS.dstt[0].eth[0].macLayer.queue incomingPacketLengths:vector ETV
attr interpolationmode none
attr recordingmode vector
attr source packetLength(packetPushStarted)
attr title "incoming packet lengths"
attr unit b
vector 106 TimeSyncUEUE.FGS.dstt[0].eth[0].macLayer.queue queueingTime:vector ETV
attr interpolationmode none
attr recordingmode vector
attr source queueingTime(packetPulled)
attr title "queueing times"
attr unit s
vector 107 TimeSyncUEUE.FGS.dstt[0].eth[0].macLayer.queue outgoingPacketLengths:vector ETV
attr interpolationmode none
attr recordingmode vector
attr source packetLength(packetPulled)
attr title "outgoing packet lengths"
attr unit b
vector 108 TimeSyncUEUE.FGS.dstt[0].eth[0].macLayer.server incomingPacketLengths:vector ETV
attr interpolationmode none
attr recordingmode vector
attr source packetLength(packetPulled)
attr title "incoming packet lengths"
attr unit b
vector 109 TimeSyncUEUE.FGS.dstt[0].eth[0].macLayer.server outgoingPacketLengths:vector ETV
attr interpolationmode none
attr recordingmode vector
attr source packetLength(packetPushed)
attr title "outgoing packet lengths"
attr unit b
vector 110 TimeSyncUEUE.FGS.dstt[0].eth[0].macLayer.outboundEmitter incomingPacketLengths:vector ETV
attr interpolationmode none
attr recordingmode vector
attr source "packetLength(merge(packetPushedIn, packetPulledIn))"
attr title "incoming packet lengths"
attr unit b
vector 111 TimeSyncUEUE.FGS.dstt[0].eth[0].macLayer.outboundEmitter outgoingPacketLengths:vector ETV
attr interpolationmode none
attr recordingmode vector
attr source "packetLength(merge(packetPushedOut, packetPulledOut))"
attr title "outgoing packet lengths"
attr unit b
vector 112 TimeSyncUEUE.FGS.dstt[0].eth[0].phyLayer.phyHeaderInserter incomingPacketLengths:vector ETV
attr interpolationmode none
attr recordingmode vector
attr source "packetLength(merge(packetPushedIn, packetPulledIn))"
attr title "incoming packet lengths"
attr unit b
vector 113 TimeSyncUEUE.FGS.dstt[0].eth[0].phyLayer.phyHeaderInserter outgoingPacketLengths:vector ETV
attr interpolationmode none
attr recordingmode vector
attr source "packetLength(merge(packetPushedOut, packetPulledOut))"
attr title "outgoing packet lengths"
attr unit b
vector 114 TimeSyncUEUE.FGS.dstt[0].eth[0].phyLayer.outboundEmitter incomingPacketLengths:vector ETV
attr interpolationmode none
attr recordingmode vector
attr source "packetLength(merge(packetPushedIn, packetPulledIn))"
attr title "incoming packet lengths"
attr unit b
vector 115 TimeSyncUEUE.FGS.dstt[0].eth[0].phyLayer.outboundEmitter outgoingPacketLengths:vector ETV
attr interpolationmode none
attr recordingmode vector
attr source "packetLength(merge(packetPushedOut, packetPulledOut))"
attr title "outgoing packet lengths"
attr unit b
vector 116 TimeSyncUEUE.TsnSwitchDomain2.eth[0].phyLayer.transmitter transmissionTime:vector ETV
attr interpolationmode none
attr recordingmode vector
attr source packetDuration(transmissionEnded)
attr title "transmission time"
attr unit s
vector 117 TimeSyncUEUE.TsnSwitchDataNetwork.eth[0].phyLayer.transmitter transmissionTime:vector ETV
attr interpolationmode none
attr recordingmode vector
attr source packetDuration(transmissionEnded)
attr title "transmission time"
attr unit s
vector 118 TimeSyncUEUE.FGS.dstt[0].eth[0].phyLayer.transmitter transmissionTime:vector ETV
attr interpolationmode none
attr recordingmode vector
attr source packetDuration(transmissionEnded)
attr title "transmission time"
attr unit s
vector 119 TimeSyncUEUE.FGS.dstt[1].eth[0].phyLayer.receiver receptionTime:vector ETV
attr interpolationmode none
attr recordingmode vector
attr source packetDuration(receptionEnded)
attr title "reception time"
attr unit s
vector 120 TimeSyncUEUE.FGS.dstt[1].eth[0].phyLayer.inboundEmitter incomingPacketLengths:vector ETV
attr interpolationmode none
attr recordingmode vector
attr source "packetLength(merge(packetPushedIn, packetPulledIn))"
attr title "incoming packet lengths"
attr unit b
vector 121 TimeSyncUEUE.FGS.dstt[1].eth[0].phyLayer.inboundEmitter outgoingPacketLengths:vector ETV
attr interpolationmode none
attr recordingmode vector
attr source "packetLength(merge(packetPushedOut, packetPulledOut))"
attr title "outgoing packet lengths"
attr unit b
vector 122 TimeSyncUEUE.FGS.dstt[1].eth[0].phyLayer.phyHeaderChecker incomingPacketLengths:vector ETV
attr interpolationmode none
attr recordingmode vector
attr source "packetLength(merge(packetPushedIn, packetPulledIn))"
attr title "incoming packet lengths"
attr unit b
vector 123 TimeSyncUEUE.FGS.dstt[1].eth[0].phyLayer.phyHeaderChecker outgoingPacketLengths:vector ETV
attr interpolationmode none
attr recordingmode vector
attr source "packetLength(merge(packetPushedOut, packetPulledOut))"
attr title "outgoing packet lengths"
attr unit b
vector 124 TimeSyncUEUE.FGS.dstt[1].eth[0].macLayer.inboundEmitter incomingPacketLengths:vector ETV
attr interpolationmode none
attr recordingmode vector
attr source "packetLength(merge(packetPushedIn, packetPulledIn))"
attr title "incoming packet lengths"
attr unit b
vector 125 TimeSyncUEUE.FGS.dstt[1].eth[0].macLayer.inboundEmitter outgoingPacketLengths:vector ETV
attr interpolationmode none
attr recordingmode vector
attr source "packetLength(merge(packetPushedOut, packetPulledOut))"
attr title "outgoing packet lengths"
attr unit b
vector 126 TimeSyncUEUE.FGS.dstt[1].eth[0].macLayer.fcsChecker incomingPacketLengths:vector ETV
attr interpolationmode none
attr recordingmode vector
attr source "packetLength(merge(packetPushedIn, packetPulledIn))"
attr title "incoming packet lengths"
attr unit b
vector 127 TimeSyncUEUE.FGS.dstt[1].eth[0].macLayer.fcsChecker outgoingPacketLengths:vector ETV
attr interpolationmode none
attr recordingmode vector
attr source "packetLength(merge(packetPushedOut, packetPulledOut))"
attr title "outgoing packet lengths"
attr unit b
vector 128 TimeSyncUEUE.FGS.dstt[1].ethernet.fcsChecker incomingPacketLengths:vector ETV
attr interpolationmode none
attr recordingmode vector
attr source "packetLength(merge(packetPushedIn, packetPulledIn))"
attr title "incoming packet lengths"
attr unit b
vector 129 TimeSyncUEUE.FGS.dstt[1].ethernet.fcsChecker outgoingPacketLengths:vector ETV
attr interpolationmode none
attr recordingmode vector
attr source "packetLength(merge(packetPushedOut, packetPulledOut))"
attr title "outgoing packet lengths"
attr unit b
vector 130 TimeSyncUEUE.FGS.dstt[1].ethernet.macHeaderChecker incomingPacketLengths:vector ETV
attr interpolationmode none
attr recordingmode vector
attr source "packetLength(merge(packetPushedIn, packetPulledIn))"
attr title "incoming packet lengths"
attr unit b
vector 131 TimeSyncUEUE.FGS.dstt[1].ethernet.macHeaderChecker outgoingPacketLengths:vector ETV
attr interpolationmode none
attr recordingmode vector
attr source "packetLength(merge(packetPushedOut, packetPulledOut))"
attr title "outgoing packet lengths"
attr unit b
vector 132 TimeSyncUEUE.FGS.dstt[1].bridging.interfaceRelay.learner incomingPacketLengths:vector ETV
attr interpolationmode none
attr recordingmode vector
attr source "packetLength(merge(packetPushedIn, packetPulledIn))"
attr title "incoming packet lengths"
attr unit b
vector 133 TimeSyncUEUE.FGS.dstt[1].bridging.interfaceRelay.learner outgoingPacketLengths:vector ETV
attr interpolationmode none
attr recordingmode vector
attr source "packetLength(merge(packetPushedOut, packetPulledOut))"
attr title "outgoing packet lengths"
attr unit b
vector 134 TimeSyncUEUE.FGS.dstt[1].bridging.streamCoder.decoder incomingPacketLengths:vector ETV
attr interpolationmode none
attr recordingmode vector
attr source "packetLength(merge(packetPushedIn, packetPulledIn))"
attr title "incoming packet lengths"
attr unit b
vector 135 TimeSyncUEUE.FGS.dstt[1].bridging.streamCoder.decoder outgoingPacketLengths:vector ETV
attr interpolationmode none
attr recordingmode vector
attr source "packetLength(merge(packetPushedOut, packetPulledOut))"
attr title "outgoing packet lengths"
attr unit b
vector 136 TimeSyncUEUE.FGS.dstt[1].gptp.classifier packetLengths:vector ETV
attr interpolationmode none
attr recordingmode vector
attr source packetLength(packetPushed)
attr title "packet lengths"
attr unit b
vector 137 TimeSyncUEUE.FGS.nwtt[0].eth[0].phyLayer.receiver receptionTime:vector ETV
attr interpolationmode none
attr recordingmode vector
attr source packetDuration(receptionEnded)
attr title "reception time"
attr unit s
vector 138 TimeSyncUEUE.FGS.nwtt[0].eth[0].phyLayer.inboundEmitter incomingPacketLengths:vector ETV
attr interpolationmode none
attr recordingmode vector
attr source "packetLength(merge(packetPushedIn, packetPulledIn))"
attr title "incoming packet lengths"
attr unit b
vector 139 TimeSyncUEUE.FGS.nwtt[0].eth[0].phyLayer.inboundEmitter outgoingPacketLengths:vector ETV
attr interpolationmode none
attr recordingmode vector
attr source "packetLength(merge(packetPushedOut, packetPulledOut))"
attr title "outgoing packet lengths"
attr unit b
vector 140 TimeSyncUEUE.FGS.nwtt[0].eth[0].phyLayer.phyHeaderChecker incomingPacketLengths:vector ETV
attr interpolationmode none
attr recordingmode vector
attr source "packetLength(merge(packetPushedIn, packetPulledIn))"
attr title "incoming packet lengths"
attr unit b
vector 141 TimeSyncUEUE.FGS.nwtt[0].eth[0].phyLayer.phyHeaderChecker outgoingPacketLengths:vector ETV
attr interpolationmode none
attr recordingmode vector
attr source "packetLength(merge(packetPushedOut, packetPulledOut))"
attr title "outgoing packet lengths"
attr unit b
vector 142 TimeSyncUEUE.FGS.nwtt[0].eth[0].macLayer.inboundEmitter incomingPacketLengths:vector ETV
attr interpolationmode none
attr recordingmode vector
attr source "packetLength(merge(packetPushedIn, packetPulledIn))"
attr title "incoming packet lengths"
attr unit b
vector 143 TimeSyncUEUE.FGS.nwtt[0].eth[0].macLayer.inboundEmitter outgoingPacketLengths:vector ETV
attr interpolationmode none
attr recordingmode vector
attr source "packetLength(merge(packetPushedOut, packetPulledOut))"
attr title "outgoing packet lengths"
attr unit b
vector 144 TimeSyncUEUE.FGS.nwtt[0].eth[0].macLayer.fcsChecker incomingPacketLengths:vector ETV
attr interpolationmode none
attr recordingmode vector
attr source "packetLength(merge(packetPushedIn, packetPulledIn))"
attr title "incoming packet lengths"
attr unit b
vector 145 TimeSyncUEUE.FGS.nwtt[0].eth[0].macLayer.fcsChecker outgoingPacketLengths:vector ETV
attr interpolationmode none
attr recordingmode vector
attr source "packetLength(merge(packetPushedOut, packetPulledOut))"
attr title "outgoing packet lengths"
attr unit b
vector 146 TimeSyncUEUE.FGS.nwtt[0].ethernet.fcsChecker incomingPacketLengths:vector ETV
attr interpolationmode none
attr recordingmode vector
attr source "packetLength(merge(packetPushedIn, packetPulledIn))"
attr title "incoming packet lengths"
attr unit b
vector 147 TimeSyncUEUE.FGS.nwtt[0].ethernet.fcsChecker outgoingPacketLengths:vector ETV
attr interpolationmode none
attr recordingmode vector
attr source "packetLength(merge(packetPushedOut, packetPulledOut))"
attr title "outgoing packet lengths"
attr unit b
vector 148 TimeSyncUEUE.FGS.nwtt[0].ethernet.macHeaderChecker incomingPacketLengths:vector ETV
attr interpolationmode none
attr recordingmode vector
attr source "packetLength(merge(packetPushedIn, packetPulledIn))"
attr title "incoming packet lengths"
attr unit b
vector 149 TimeSyncUEUE.FGS.nwtt[0].ethernet.macHeaderChecker outgoingPacketLengths:vector ETV
attr interpolationmode none
attr recordingmode vector
attr source "packetLength(merge(packetPushedOut, packetPulledOut))"
attr title "outgoing packet lengths"
attr unit b
vector 150 TimeSyncUEUE.FGS.nwtt[0].bridging.interfaceRelay.learner incomingPacketLengths:vector ETV
attr interpolationmode none
attr recordingmode vector
attr source "packetLength(merge(packetPushedIn, packetPulledIn))"
attr title "incoming packet lengths"
attr unit b
vector 151 TimeSyncUEUE.FGS.nwtt[0].bridging.interfaceRelay.learner outgoingPacketLengths:vector ETV
attr interpolationmode none
attr recordingmode vector
attr source "packetLength(merge(packetPushedOut, packetPulledOut))"
attr title "outgoing packet lengths"
attr unit b
vector 152 TimeSyncUEUE.FGS.nwtt[0].bridging.streamCoder.decoder incomingPacketLengths:vector ETV
attr interpolationmode none
attr recordingmode vector
attr source "packetLength(merge(packetPushedIn, packetPulledIn))"
attr title "incoming packet lengths"
attr unit b
vector 153 TimeSyncUEUE.FGS.nwtt[0].bridging.streamCoder.decoder outgoingPacketLengths:vector ETV
attr interpolationmode none
attr recordingmode vector
attr source "packetLength(merge(packetPushedOut, packetPulledOut))"
attr title "outgoing packet lengths"
attr unit b
vector 154 TimeSyncUEUE.FGS.nwtt[0].gptp.classifier packetLengths:vector ETV
attr interpolationmode none
attr recordingmode vector
attr source packetLength(packetPushed)
attr title "packet lengths"
attr unit b
vector 155 TimeSyncUEUE.TsnSwitchDomain1.eth[0].phyLayer.receiver receptionTime:vector ETV
attr interpolationmode none
attr recordingmode vector
attr source packetDuration(receptionEnded)
attr title "reception time"
attr unit s
vector 156 TimeSyncUEUE.TsnSwitchDomain1.eth[0].phyLayer.inboundEmitter incomingPacketLengths:vector ETV
attr interpolationmode none
attr recordingmode vector
attr source "packetLength(merge(packetPushedIn, packetPulledIn))"
attr title "incoming packet lengths"
attr unit b
vector 157 TimeSyncUEUE.TsnSwitchDomain1.eth[0].phyLayer.inboundEmitter outgoingPacketLengths:vector ETV
attr interpolationmode none
attr recordingmode vector
attr source "packetLength(merge(packetPushedOut, packetPulledOut))"
attr title "outgoing packet lengths"
attr unit b
vector 158 TimeSyncUEUE.TsnSwitchDomain1.eth[0].phyLayer.phyHeaderChecker incomingPacketLengths:vector ETV
attr interpolationmode none
attr recordingmode vector
attr source "packetLength(merge(packetPushedIn, packetPulledIn))"
attr title "incoming packet lengths"
attr unit b
vector 159 TimeSyncUEUE.TsnSwitchDomain1.eth[0].phyLayer.phyHeaderChecker outgoingPacketLengths:vector ETV
attr interpolationmode none
attr recordingmode vector
attr source "packetLength(merge(packetPushedOut, packetPulledOut))"
attr title "outgoing packet lengths"
attr unit b
vector 160 TimeSyncUEUE.TsnSwitchDomain1.eth[0].macLayer.inboundEmitter incomingPacketLengths:vector ETV
attr interpolationmode none
attr recordingmode vector
attr source "packetLength(merge(packetPushedIn, packetPulledIn))"
attr title "incoming packet lengths"
attr unit b
vector 161 TimeSyncUEUE.TsnSwitchDomain1.eth[0].macLayer.inboundEmitter outgoingPacketLengths:vector ETV
attr interpolationmode none
attr recordingmode vector
attr source "packetLength(merge(packetPushedOut, packetPulledOut))"
attr title "outgoing packet lengths"
attr unit b
vector 162 TimeSyncUEUE.TsnSwitchDomain1.eth[0].macLayer.fcsChecker incomingPacketLengths:vector ETV
attr interpolationmode none
attr recordingmode vector
attr source "packetLength(merge(packetPushedIn, packetPulledIn))"
attr title "incoming packet lengths"
attr unit b
vector 163 TimeSyncUEUE.TsnSwitchDomain1.eth[0].macLayer.fcsChecker outgoingPacketLengths:vector ETV
attr interpolationmode none
attr recordingmode vector
attr source "packetLength(merge(packetPushedOut, packetPulledOut))"
attr title "outgoing packet lengths"
attr unit b
vector 164 TimeSyncUEUE.TsnSwitchDomain1.ethernet.fcsChecker incomingPacketLengths:vector ETV
attr interpolationmode none
attr recordingmode vector
attr source "packetLength(merge(packetPushedIn, packetPulledIn))"
attr title "incoming packet lengths"
attr unit b
vector 165 TimeSyncUEUE.TsnSwitchDomain1.ethernet.fcsChecker outgoingPacketLengths:vector ETV
attr interpolationmode none
attr recordingmode vector
attr source "packetLength(merge(packetPushedOut, packetPulledOut))"
attr title "outgoing packet lengths"
attr unit b
vector 166 TimeSyncUEUE.TsnSwitchDomain1.ethernet.macHeaderChecker incomingPacketLengths:vector ETV
attr interpolationmode none
attr recordingmode vector
attr source "packetLength(merge(packetPushedIn, packetPulledIn))"
attr title "incoming packet lengths"
attr unit b
vector 167 TimeSyncUEUE.TsnSwitchDomain1.ethernet.macHeaderChecker outgoingPacketLengths:vector ETV
attr interpolationmode none
attr recordingmode vector
attr source "packetLength(merge(packetPushedOut, packetPulledOut))"
attr title "outgoing packet lengths"
attr unit b
vector 168 TimeSyncUEUE.FGS.dstt[1].bridging.streamCoder.encoder incomingPacketLengths:vector ETV
attr interpolationmode none
attr recordingmode vector
attr source "packetLength(merge(packetPushedIn, packetPulledIn))"
attr title "incoming packet lengths"
attr unit b
vector 169 TimeSyncUEUE.FGS.dstt[1].bridging.streamCoder.encoder outgoingPacketLengths:vector ETV
attr interpolationmode none
attr recordingmode vector
attr source "packetLength(merge(packetPushedOut, packetPulledOut))"
attr title "outgoing packet lengths"
attr unit b
vector 170 TimeSyncUEUE.FGS.nwtt[0].bridging.streamCoder.encoder incomingPacketLengths:vector ETV
attr interpolationmode none
attr recordingmode vector
attr source "packetLength(merge(packetPushedIn, packetPulledIn))"
attr title "incoming packet lengths"
attr unit b
vector 171 TimeSyncUEUE.FGS.nwtt[0].bridging.streamCoder.encoder outgoingPacketLengths:vector ETV
attr interpolationmode none
attr recordingmode vector
attr source "packetLength(merge(packetPushedOut, packetPulledOut))"
attr title "outgoing packet lengths"
attr unit b
vector 172 TimeSyncUEUE.TsnSwitchDomain1.ethernet.macHeaderInserter incomingPacketLengths:vector ETV
attr interpolationmode none
attr recordingmode vector
attr source "packetLength(merge(packetPushedIn, packetPulledIn))"
attr title "incoming packet lengths"
attr unit b
vector 173 TimeSyncUEUE.TsnSwitchDomain1.ethernet.macHeaderInserter outgoingPacketLengths:vector ETV
attr interpolationmode none
attr recordingmode vector
attr source "packetLength(merge(packetPushedOut, packetPulledOut))"
attr title "outgoing packet lengths"
attr unit b
vector 174 TimeSyncUEUE.TsnSwitchDomain1.ethernet.paddingInserter incomingPacketLengths:vector ETV
attr interpolationmode none
attr recordingmode vector
attr source "packetLength(merge(packetPushedIn, packetPulledIn))"
attr title "incoming packet lengths"
attr unit b
vector 175 TimeSyncUEUE.TsnSwitchDomain1.ethernet.paddingInserter outgoingPacketLengths:vector ETV
attr interpolationmode none
attr recordingmode vector
attr source "packetLength(merge(packetPushedOut, packetPulledOut))"
attr title "outgoing packet lengths"
attr unit b
vector 176 TimeSyncUEUE.TsnSwitchDomain1.ethernet.fcsInserter incomingPacketLengths:vector ETV
attr interpolationmode none
attr recordingmode vector
attr source "packetLength(merge(packetPushedIn, packetPulledIn))"
attr title "incoming packet lengths"
attr unit b
vector 177 TimeSyncUEUE.TsnSwitchDomain1.ethernet.fcsInserter outgoingPacketLengths:vector ETV
attr interpolationmode none
attr recordingmode vector
attr source "packetLength(merge(packetPushedOut, packetPulledOut))"
attr title "outgoing packet lengths"
attr unit b
vector 178 TimeSyncUEUE.TsnSwitchDomain1.eth[0].macLayer.queue incomingPacketLengths:vector ETV
attr interpolationmode none
attr recordingmode vector
attr source packetLength(packetPushStarted)
attr title "incoming packet lengths"
attr unit b
vector 179 TimeSyncUEUE.FGS.dstt[1].ethernet.macHeaderInserter incomingPacketLengths:vector ETV
attr interpolationmode none
attr recordingmode vector
attr source "packetLength(merge(packetPushedIn, packetPulledIn))"
attr title "incoming packet lengths"
attr unit b
vector 180 TimeSyncUEUE.FGS.dstt[1].ethernet.macHeaderInserter outgoingPacketLengths:vector ETV
attr interpolationmode none
attr recordingmode vector
attr source "packetLength(merge(packetPushedOut, packetPulledOut))"
attr title "outgoing packet lengths"
attr unit b
vector 181 TimeSyncUEUE.FGS.dstt[1].ethernet.paddingInserter incomingPacketLengths:vector ETV
attr interpolationmode none
attr recordingmode vector
attr source "packetLength(merge(packetPushedIn, packetPulledIn))"
attr title "incoming packet lengths"
attr unit b
vector 182 TimeSyncUEUE.FGS.dstt[1].ethernet.paddingInserter outgoingPacketLengths:vector ETV
attr interpolationmode none
attr recordingmode vector
attr source "packetLength(merge(packetPushedOut, packetPulledOut))"
attr title "outgoing packet lengths"
attr unit b
vector 183 TimeSyncUEUE.FGS.dstt[1].ethernet.fcsInserter incomingPacketLengths:vector ETV
attr interpolationmode none
attr recordingmode vector
attr source "packetLength(merge(packetPushedIn, packetPulledIn))"
attr title "incoming packet lengths"
attr unit b
vector 184 TimeSyncUEUE.FGS.dstt[1].ethernet.fcsInserter outgoingPacketLengths:vector ETV
attr interpolationmode none
attr recordingmode vector
attr source "packetLength(merge(packetPushedOut, packetPulledOut))"
attr title "outgoing packet lengths"
attr unit b
vector 185 TimeSyncUEUE.FGS.dstt[1].eth[0].macLayer.queue incomingPacketLengths:vector ETV
attr interpolationmode none
attr recordingmode vector
attr source packetLength(packetPushStarted)
attr title "incoming packet lengths"
attr unit b
vector 186 TimeSyncUEUE.FGS.nwtt[0].ethernet.macHeaderInserter incomingPacketLengths:vector ETV
attr interpolationmode none
attr recordingmode vector
attr source "packetLength(merge(packetPushedIn, packetPulledIn))"
attr title "incoming packet lengths"
attr unit b
vector 187 TimeSyncUEUE.FGS.nwtt[0].ethernet.macHeaderInserter outgoingPacketLengths:vector ETV
attr interpolationmode none
attr recordingmode vector
attr source "packetLength(merge(packetPushedOut, packetPulledOut))"
attr title "outgoing packet lengths"
attr unit b
vector 188 TimeSyncUEUE.FGS.nwtt[0].ethernet.paddingInserter incomingPacketLengths:vector ETV
attr interpolationmode none
attr recordingmode vector
attr source "packetLength(merge(packetPushedIn, packetPulledIn))"
attr title "incoming packet lengths"
attr unit b
vector 189 TimeSyncUEUE.FGS.nwtt[0].ethernet.paddingInserter outgoingPacketLengths:vector ETV
attr interpolationmode none
attr recordingmode vector
attr source "packetLength(merge(packetPushedOut, packetPulledOut))"
attr title "outgoing packet lengths"
attr unit b
vector 190 TimeSyncUEUE.FGS.nwtt[0].ethernet.fcsInserter incomingPacketLengths:vector ETV
attr interpolationmode none
attr recordingmode vector
attr source "packetLength(merge(packetPushedIn, packetPulledIn))"
attr title "incoming packet lengths"
attr unit b
vector 191 TimeSyncUEUE.FGS.nwtt[0].ethernet.fcsInserter outgoingPacketLengths:vector ETV
attr interpolationmode none
attr recordingmode vector
attr source "packetLength(merge(packetPushedOut, packetPulledOut))"
attr title "outgoing packet lengths"
attr unit b
vector 192 TimeSyncUEUE.FGS.nwtt[0].eth[0].macLayer.queue incomingPacketLengths:vector ETV
attr interpolationmode none
attr recordingmode vector
attr source packetLength(packetPushStarted)
attr title "incoming packet lengths"
attr unit b
vector 193 TimeSyncUEUE.TsnSwitchDomain1.eth[0].macLayer.queue queueingTime:vector ETV
attr interpolationmode none
attr recordingmode vector
attr source queueingTime(packetPulled)
attr title "queueing times"
attr unit s
vector 194 TimeSyncUEUE.TsnSwitchDomain1.eth[0].macLayer.queue outgoingPacketLengths:vector ETV
attr interpolationmode none
attr recordingmode vector
attr source packetLength(packetPulled)
attr title "outgoing packet lengths"
attr unit b
vector 195 TimeSyncUEUE.TsnSwitchDomain1.eth[0].macLayer.server incomingPacketLengths:vector ETV
attr interpolationmode none
attr recordingmode vector
attr source packetLength(packetPulled)
attr title "incoming packet lengths"
attr unit b
vector 196 TimeSyncUEUE.TsnSwitchDomain1.eth[0].macLayer.server outgoingPacketLengths:vector ETV
attr interpolationmode none
attr recordingmode vector
attr source packetLength(packetPushed)
attr title "outgoing packet lengths"
attr unit b
vector 197 TimeSyncUEUE.TsnSwitchDomain1.eth[0].macLayer.outboundEmitter incomingPacketLengths:vector ETV
attr interpolationmode none
attr recordingmode vector
attr source "packetLength(merge(packetPushedIn, packetPulledIn))"
attr title "incoming packet lengths"
attr unit b
vector 198 TimeSyncUEUE.TsnSwitchDomain1.eth[0].macLayer.outboundEmitter outgoingPacketLengths:vector ETV
attr interpolationmode none
attr recordingmode vector
attr source "packetLength(merge(packetPushedOut, packetPulledOut))"
attr title "outgoing packet lengths"
attr unit b
vector 199 TimeSyncUEUE.TsnSwitchDomain1.eth[0].phyLayer.phyHeaderInserter incomingPacketLengths:vector ETV
attr interpolationmode none
attr recordingmode vector
attr source "packetLength(merge(packetPushedIn, packetPulledIn))"
attr title "incoming packet lengths"
attr unit b
vector 200 TimeSyncUEUE.TsnSwitchDomain1.eth[0].phyLayer.phyHeaderInserter outgoingPacketLengths:vector ETV
attr interpolationmode none
attr recordingmode vector
attr source "packetLength(merge(packetPushedOut, packetPulledOut))"
attr title "outgoing packet lengths"
attr unit b
vector 201 TimeSyncUEUE.TsnSwitchDomain1.eth[0].phyLayer.outboundEmitter incomingPacketLengths:vector ETV
attr interpolationmode none
attr recordingmode vector
attr source "packetLength(merge(packetPushedIn, packetPulledIn))"
attr title "incoming packet lengths"
attr unit b
vector 202 TimeSyncUEUE.TsnSwitchDomain1.eth[0].phyLayer.outboundEmitter outgoingPacketLengths:vector ETV
attr interpolationmode none
attr recordingmode vector
attr source "packetLength(merge(packetPushedOut, packetPulledOut))"
attr title "outgoing packet lengths"
attr unit b
vector 203 TimeSyncUEUE.FGS.dstt[1].eth[0].macLayer.queue queueingTime:vector ETV
attr interpolationmode none
attr recordingmode vector
attr source queueingTime(packetPulled)
attr title "queueing times"
attr unit s
vector 204 TimeSyncUEUE.FGS.dstt[1].eth[0].macLayer.queue outgoingPacketLengths:vector ETV
attr interpolationmode none
attr recordingmode vector
attr source packetLength(packetPulled)
attr title "outgoing packet lengths"
attr unit b
vector 205 TimeSyncUEUE.FGS.dstt[1].eth[0].macLayer.server incomingPacketLengths:vector ETV
attr interpolationmode none
attr recordingmode vector
attr source packetLength(packetPulled)
attr title "incoming packet lengths"
attr unit b
vector 206 TimeSyncUEUE.FGS.dstt[1].eth[0].macLayer.server outgoingPacketLengths:vector ETV
attr interpolationmode none
attr recordingmode vector
attr source packetLength(packetPushed)
attr title "outgoing packet lengths"
attr unit b
vector 207 TimeSyncUEUE.FGS.dstt[1].eth[0].macLayer.outboundEmitter incomingPacketLengths:vector ETV
attr interpolationmode none
attr recordingmode vector
attr source "packetLength(merge(packetPushedIn, packetPulledIn))"
attr title "incoming packet lengths"
attr unit b
vector 208 TimeSyncUEUE.FGS.dstt[1].eth[0].macLayer.outboundEmitter outgoingPacketLengths:vector ETV
attr interpolationmode none
attr recordingmode vector
attr source "packetLength(merge(packetPushedOut, packetPulledOut))"
attr title "outgoing packet lengths"
attr unit b
vector 209 TimeSyncUEUE.FGS.dstt[1].eth[0].phyLayer.phyHeaderInserter incomingPacketLengths:vector ETV
attr interpolationmode none
attr recordingmode vector
attr source "packetLength(merge(packetPushedIn, packetPulledIn))"
attr title "incoming packet lengths"
attr unit b
vector 210 TimeSyncUEUE.FGS.dstt[1].eth[0].phyLayer.phyHeaderInserter outgoingPacketLengths:vector ETV
attr interpolationmode none
attr recordingmode vector
attr source "packetLength(merge(packetPushedOut, packetPulledOut))"
attr title "outgoing packet lengths"
attr unit b
vector 211 TimeSyncUEUE.FGS.dstt[1].eth[0].phyLayer.outboundEmitter incomingPacketLengths:vector ETV
attr interpolationmode none
attr recordingmode vector
attr source "packetLength(merge(packetPushedIn, packetPulledIn))"
attr title "incoming packet lengths"
attr unit b
vector 212 TimeSyncUEUE.FGS.dstt[1].eth[0].phyLayer.outboundEmitter outgoingPacketLengths:vector ETV
attr interpolationmode none
attr recordingmode vector
attr source "packetLength(merge(packetPushedOut, packetPulledOut))"
attr title "outgoing packet lengths"
attr unit b
vector 213 TimeSyncUEUE.FGS.nwtt[0].eth[0].macLayer.queue queueingTime:vector ETV
attr interpolationmode none
attr recordingmode vector
attr source queueingTime(packetPulled)
attr title "queueing times"
attr unit s
vector 214 TimeSyncUEUE.FGS.nwtt[0].eth[0].macLayer.queue outgoingPacketLengths:vector ETV
attr interpolationmode none
attr recordingmode vector
attr source packetLength(packetPulled)
attr title "outgoing packet lengths"
attr unit b
vector 215 TimeSyncUEUE.FGS.nwtt[0].eth[0].macLayer.server incomingPacketLengths:vector ETV
attr interpolationmode none
attr recordingmode vector
attr source packetLength(packetPulled)
attr title "incoming packet lengths"
attr unit b
vector 216 TimeSyncUEUE.FGS.nwtt[0].eth[0].macLayer.server outgoingPacketLengths:vector ETV
attr interpolationmode none
attr recordingmode vector
attr source packetLength(packetPushed)
attr title "outgoing packet lengths"
attr unit b
vector 217 TimeSyncUEUE.FGS.nwtt[0].eth[0].macLayer.outboundEmitter incomingPacketLengths:vector ETV
attr interpolationmode none
attr recordingmode vector
attr source "packetLength(merge(packetPushedIn, packetPulledIn))"
attr title "incoming packet lengths"
attr unit b
vector 218 TimeSyncUEUE.FGS.nwtt[0].eth[0].macLayer.outboundEmitter outgoingPacketLengths:vector ETV
attr interpolationmode none
attr recordingmode vector
attr source "packetLength(merge(packetPushedOut, packetPulledOut))"
attr title "outgoing packet lengths"
attr unit b
vector 219 TimeSyncUEUE.FGS.nwtt[0].eth[0].phyLayer.phyHeaderInserter incomingPacketLengths:vector ETV
attr interpolationmode none
attr recordingmode vector
attr source "packetLength(merge(packetPushedIn, packetPulledIn))"
attr title "incoming packet lengths"
attr unit b
vector 220 TimeSyncUEUE.FGS.nwtt[0].eth[0].phyLayer.phyHeaderInserter outgoingPacketLengths:vector ETV
attr interpolationmode none
attr recordingmode vector
attr source "packetLength(merge(packetPushedOut, packetPulledOut))"
attr title "outgoing packet lengths"
attr unit b
vector 221 TimeSyncUEUE.FGS.nwtt[0].eth[0].phyLayer.outboundEmitter incomingPacketLengths:vector ETV
attr interpolationmode none
attr recordingmode vector
attr source "packetLength(merge(packetPushedIn, packetPulledIn))"
attr title "incoming packet lengths"
attr unit b
vector 222 TimeSyncUEUE.FGS.nwtt[0].eth[0].phyLayer.outboundEmitter outgoingPacketLengths:vector ETV
attr interpolationmode none
attr recordingmode vector
attr source "packetLength(merge(packetPushedOut, packetPulledOut))"
attr title "outgoing packet lengths"
attr unit b
vector 223 TimeSyncUEUE.TsnSwitchDomain1.eth[0].phyLayer.transmitter transmissionTime:vector ETV
attr interpolationmode none
attr recordingmode vector
attr source packetDuration(transmissionEnded)
attr title "transmission time"
attr unit s
vector 224 TimeSyncUEUE.FGS.dstt[1].eth[0].phyLayer.transmitter transmissionTime:vector ETV
attr interpolationmode none
attr recordingmode vector
attr source packetDuration(transmissionEnded)
attr title "transmission time"
attr unit s
vector 225 TimeSyncUEUE.FGS.nwtt[0].eth[0].phyLayer.transmitter transmissionTime:vector ETV
attr interpolationmode none
attr recordingmode vector
attr source packetDuration(transmissionEnded)
attr title "transmission time"
attr unit s
vector 226 TimeSyncUEUE.FGS.dstt[0].eth[0].phyLayer.receiver receptionTime:vector ETV
attr interpolationmode none
attr recordingmode vector
attr source packetDuration(receptionEnded)
attr title "reception time"
attr unit s
vector 227 TimeSyncUEUE.FGS.dstt[0].eth[0].phyLayer.inboundEmitter incomingPacketLengths:vector ETV
attr interpolationmode none
attr recordingmode vector
attr source "packetLength(merge(packetPushedIn, packetPulledIn))"
attr title "incoming packet lengths"
attr unit b
vector 228 TimeSyncUEUE.FGS.dstt[0].eth[0].phyLayer.inboundEmitter outgoingPacketLengths:vector ETV
attr interpolationmode none
attr recordingmode vector
attr source "packetLength(merge(packetPushedOut, packetPulledOut))"
attr title "outgoing packet lengths"
attr unit b
vector 229 TimeSyncUEUE.FGS.dstt[0].eth[0].phyLayer.phyHeaderChecker incomingPacketLengths:vector ETV
attr interpolationmode none
attr recordingmode vector
attr source "packetLength(merge(packetPushedIn, packetPulledIn))"
attr title "incoming packet lengths"
attr unit b
vector 230 TimeSyncUEUE.FGS.dstt[0].eth[0].phyLayer.phyHeaderChecker outgoingPacketLengths:vector ETV
attr interpolationmode none
attr recordingmode vector
attr source "packetLength(merge(packetPushedOut, packetPulledOut))"
attr title "outgoing packet lengths"
attr unit b
vector 231 TimeSyncUEUE.FGS.dstt[0].eth[0].macLayer.inboundEmitter incomingPacketLengths:vector ETV
attr interpolationmode none
attr recordingmode vector
attr source "packetLength(merge(packetPushedIn, packetPulledIn))"
attr title "incoming packet lengths"
attr unit b
vector 232 TimeSyncUEUE.FGS.dstt[0].eth[0].macLayer.inboundEmitter outgoingPacketLengths:vector ETV
attr interpolationmode none
attr recordingmode vector
attr source "packetLength(merge(packetPushedOut, packetPulledOut))"
attr title "outgoing packet lengths"
attr unit b
vector 233 TimeSyncUEUE.FGS.dstt[0].eth[0].macLayer.fcsChecker incomingPacketLengths:vector ETV
attr interpolationmode none
attr recordingmode vector
attr source "packetLength(merge(packetPushedIn, packetPulledIn))"
attr title "incoming packet lengths"
attr unit b
vector 234 TimeSyncUEUE.FGS.dstt[0].eth[0].macLayer.fcsChecker outgoingPacketLengths:vector ETV
attr interpolationmode none
attr recordingmode vector
attr source "packetLength(merge(packetPushedOut, packetPulledOut))"
attr title "outgoing packet lengths"
attr unit b
vector 235 TimeSyncUEUE.FGS.dstt[0].ethernet.fcsChecker incomingPacketLengths:vector ETV
attr interpolationmode none
attr recordingmode vector
attr source "packetLength(merge(packetPushedIn, packetPulledIn))"
attr title "incoming packet lengths"
attr unit b
vector 236 TimeSyncUEUE.FGS.dstt[0].ethernet.fcsChecker outgoingPacketLengths:vector ETV
attr interpolationmode none
attr recordingmode vector
attr source "packetLength(merge(packetPushedOut, packetPulledOut))"
attr title "outgoing packet lengths"
attr unit b
vector 237 TimeSyncUEUE.FGS.dstt[0].ethernet.macHeaderChecker incomingPacketLengths:vector ETV
attr interpolationmode none
attr recordingmode vector
attr source "packetLength(merge(packetPushedIn, packetPulledIn))"
attr title "incoming packet lengths"
attr unit b
vector 238 TimeSyncUEUE.FGS.dstt[0].ethernet.macHeaderChecker outgoingPacketLengths:vector ETV
attr interpolationmode none
attr recordingmode vector
attr source "packetLength(merge(packetPushedOut, packetPulledOut))"
attr title "outgoing packet lengths"
attr unit b
vector 239 TimeSyncUEUE.FGS.dstt[0].bridging.interfaceRelay.learner incomingPacketLengths:vector ETV
attr interpolationmode none
attr recordingmode vector
attr source "packetLength(merge(packetPushedIn, packetPulledIn))"
attr title "incoming packet lengths"
attr unit b
vector 240 TimeSyncUEUE.FGS.dstt[0].bridging.interfaceRelay.learner outgoingPacketLengths:vector ETV
attr interpolationmode none
attr recordingmode vector
attr source "packetLength(merge(packetPushedOut, packetPulledOut))"
attr title "outgoing packet lengths"
attr unit b
vector 241 TimeSyncUEUE.FGS.dstt[0].bridging.streamCoder.decoder incomingPacketLengths:vector ETV
attr interpolationmode none
attr recordingmode vector
attr source "packetLength(merge(packetPushedIn, packetPulledIn))"
attr title "incoming packet lengths"
attr unit b
vector 242 TimeSyncUEUE.FGS.dstt[0].bridging.streamCoder.decoder outgoingPacketLengths:vector ETV
attr interpolationmode none
attr recordingmode vector
attr source "packetLength(merge(packetPushedOut, packetPulledOut))"
attr title "outgoing packet lengths"
attr unit b
vector 243 TimeSyncUEUE.FGS.dstt[0].gptp.classifier packetLengths:vector ETV
attr interpolationmode none
attr recordingmode vector
attr source packetLength(packetPushed)
attr title "packet lengths"
attr unit b
vector 244 TimeSyncUEUE.TsnSwitchDomain2.eth[0].phyLayer.receiver receptionTime:vector ETV
attr interpolationmode none
attr recordingmode vector
attr source packetDuration(receptionEnded)
attr title "reception time"
attr unit s
vector 245 TimeSyncUEUE.TsnSwitchDomain2.eth[0].phyLayer.inboundEmitter incomingPacketLengths:vector ETV
attr interpolationmode none
attr recordingmode vector
attr source "packetLength(merge(packetPushedIn, packetPulledIn))"
attr title "incoming packet lengths"
attr unit b
vector 246 TimeSyncUEUE.TsnSwitchDomain2.eth[0].phyLayer.inboundEmitter outgoingPacketLengths:vector ETV
attr interpolationmode none
attr recordingmode vector
attr source "packetLength(merge(packetPushedOut, packetPulledOut))"
attr title "outgoing packet lengths"
attr unit b
vector 247 TimeSyncUEUE.TsnSwitchDomain2.eth[0].phyLayer.phyHeaderChecker incomingPacketLengths:vector ETV
attr interpolationmode none
attr recordingmode vector
attr source "packetLength(merge(packetPushedIn, packetPulledIn))"
attr title "incoming packet lengths"
attr unit b
vector 248 TimeSyncUEUE.TsnSwitchDomain2.eth[0].phyLayer.phyHeaderChecker outgoingPacketLengths:vector ETV
attr interpolationmode none
attr recordingmode vector
attr source "packetLength(merge(packetPushedOut, packetPulledOut))"
attr title "outgoing packet lengths"
attr unit b
vector 249 TimeSyncUEUE.TsnSwitchDomain2.eth[0].macLayer.inboundEmitter incomingPacketLengths:vector ETV
attr interpolationmode none
attr recordingmode vector
attr source "packetLength(merge(packetPushedIn, packetPulledIn))"
attr title "incoming packet lengths"
attr unit b
vector 250 TimeSyncUEUE.TsnSwitchDomain2.eth[0].macLayer.inboundEmitter outgoingPacketLengths:vector ETV
attr interpolationmode none
attr recordingmode vector
attr source "packetLength(merge(packetPushedOut, packetPulledOut))"
attr title "outgoing packet lengths"
attr unit b
vector 251 TimeSyncUEUE.TsnSwitchDomain2.eth[0].macLayer.fcsChecker incomingPacketLengths:vector ETV
attr interpolationmode none
attr recordingmode vector
attr source "packetLength(merge(packetPushedIn, packetPulledIn))"
attr title "incoming packet lengths"
attr unit b
vector 252 TimeSyncUEUE.TsnSwitchDomain2.eth[0].macLayer.fcsChecker outgoingPacketLengths:vector ETV
attr interpolationmode none
attr recordingmode vector
attr source "packetLength(merge(packetPushedOut, packetPulledOut))"
attr title "outgoing packet lengths"
attr unit b
vector 253 TimeSyncUEUE.TsnSwitchDomain2.ethernet.fcsChecker incomingPacketLengths:vector ETV
attr interpolationmode none
attr recordingmode vector
attr source "packetLength(merge(packetPushedIn, packetPulledIn))"
attr title "incoming packet lengths"
attr unit b
vector 254 TimeSyncUEUE.TsnSwitchDomain2.ethernet.fcsChecker outgoingPacketLengths:vector ETV
attr interpolationmode none
attr recordingmode vector
attr source "packetLength(merge(packetPushedOut, packetPulledOut))"
attr title "outgoing packet lengths"
attr unit b
vector 255 TimeSyncUEUE.TsnSwitchDomain2.ethernet.macHeaderChecker incomingPacketLengths:vector ETV
attr interpolationmode none
attr recordingmode vector
attr source "packetLength(merge(packetPushedIn, packetPulledIn))"
attr title "incoming packet lengths"
attr unit b
vector 256 TimeSyncUEUE.TsnSwitchDomain2.ethernet.macHeaderChecker outgoingPacketLengths:vector ETV
attr interpolationmode none
attr recordingmode vector
attr source "packetLength(merge(packetPushedOut, packetPulledOut))"
attr title "outgoing packet lengths"
attr unit b
vector 257 TimeSyncUEUE.TsnSwitchDataNetwork.eth[0].phyLayer.receiver receptionTime:vector ETV
attr interpolationmode none
attr recordingmode vector
attr source packetDuration(receptionEnded)
attr title "reception time"
attr unit s
vector 258 TimeSyncUEUE.TsnSwitchDataNetwork.eth[0].phyLayer.inboundEmitter incomingPacketLengths:vector ETV
attr interpolationmode none
attr recordingmode vector
attr source "packetLength(merge(packetPushedIn, packetPulledIn))"
attr title "incoming packet lengths"
attr unit b
vector 259 TimeSyncUEUE.TsnSwitchDataNetwork.eth[0].phyLayer.inboundEmitter outgoingPacketLengths:vector ETV
attr interpolationmode none
attr recordingmode vector
attr source "packetLength(merge(packetPushedOut, packetPulledOut))"
attr title "outgoing packet lengths"
attr unit b
vector 260 TimeSyncUEUE.TsnSwitchDataNetwork.eth[0].phyLayer.phyHeaderChecker incomingPacketLengths:vector ETV
attr interpolationmode none
attr recordingmode vector
attr source "packetLength(merge(packetPushedIn, packetPulledIn))"
attr title "incoming packet lengths"
attr unit b
vector 261 TimeSyncUEUE.TsnSwitchDataNetwork.eth[0].phyLayer.phyHeaderChecker outgoingPacketLengths:vector ETV
attr interpolationmode none
attr recordingmode vector
attr source "packetLength(merge(packetPushedOut, packetPulledOut))"
attr title "outgoing packet lengths"
attr unit b
vector 262 TimeSyncUEUE.TsnSwitchDataNetwork.eth[0].macLayer.inboundEmitter incomingPacketLengths:vector ETV
attr interpolationmode none
attr recordingmode vector
attr source "packetLength(merge(packetPushedIn, packetPulledIn))"
attr title "incoming packet lengths"
attr unit b
vector 263 TimeSyncUEUE.TsnSwitchDataNetwork.eth[0].macLayer.inboundEmitter outgoingPacketLengths:vector ETV
attr interpolationmode none
attr recordingmode vector
attr source "packetLength(merge(packetPushedOut, packetPulledOut))"
attr title "outgoing packet lengths"
attr unit b
vector 264 TimeSyncUEUE.TsnSwitchDataNetwork.eth[0].macLayer.fcsChecker incomingPacketLengths:vector ETV
attr interpolationmode none
attr recordingmode vector
attr source "packetLength(merge(packetPushedIn, packetPulledIn))"
attr title "incoming packet lengths"
attr unit b
vector 265 TimeSyncUEUE.TsnSwitchDataNetwork.eth[0].macLayer.fcsChecker outgoingPacketLengths:vector ETV
attr interpolationmode none
attr recordingmode vector
attr source "packetLength(merge(packetPushedOut, packetPulledOut))"
attr title "outgoing packet lengths"
attr unit b
vector 266 TimeSyncUEUE.TsnSwitchDataNetwork.ethernet.fcsChecker incomingPacketLengths:vector ETV
attr interpolationmode none
attr recordingmode vector
attr source "packetLength(merge(packetPushedIn, packetPulledIn))"
attr title "incoming packet lengths"
attr unit b
vector 267 TimeSyncUEUE.TsnSwitchDataNetwork.ethernet.fcsChecker outgoingPacketLengths:vector ETV
attr interpolationmode none
attr recordingmode vector
attr source "packetLength(merge(packetPushedOut, packetPulledOut))"
attr title "outgoing packet lengths"
attr unit b
vector 268 TimeSyncUEUE.TsnSwitchDataNetwork.ethernet.macHeaderChecker incomingPacketLengths:vector ETV
attr interpolationmode none
attr recordingmode vector
attr source "packetLength(merge(packetPushedIn, packetPulledIn))"
attr title "incoming packet lengths"
attr unit b
vector 269 TimeSyncUEUE.TsnSwitchDataNetwork.ethernet.macHeaderChecker outgoingPacketLengths:vector ETV
attr interpolationmode none
attr recordingmode vector
attr source "packetLength(merge(packetPushedOut, packetPulledOut))"
attr title "outgoing packet lengths"
attr unit b
vector 270 TimeSyncUEUE.FGS.dstt[0].gptp.domain[0] peerDelay:vector ETV
attr interpolationmode sample-hold
attr recordingmode vector
vector 271 TimeSyncUEUE.TsnSwitchDomain2.gptp peerDelay:vector ETV
attr interpolationmode sample-hold
attr recordingmode vector
vector 272 TimeSyncUEUE.TsnSwitchDataNetwork.gptp peerDelay:vector ETV
attr interpolationmode sample-hold
attr recordingmode vector
vector 273 TimeSyncUEUE.FGS.dstt[0].tt[0].macLayer.queue incomingPacketLengths:vector ETV
attr interpolationmode none
attr recordingmode vector
attr source packetLength(packetPushStarted)
attr title "incoming packet lengths"
attr unit b
vector 274 TimeSyncUEUE.FGS.dstt[0].tt[0].macLayer.queue queueingTime:vector ETV
attr interpolationmode none
attr recordingmode vector
attr source queueingTime(packetPulled)
attr title "queueing times"
attr unit s
vector 275 TimeSyncUEUE.FGS.dstt[0].tt[0].macLayer.queue outgoingPacketLengths:vector ETV
attr interpolationmode none
attr recordingmode vector
attr source packetLength(packetPulled)
attr title "outgoing packet lengths"
attr unit b
vector 276 TimeSyncUEUE.FGS.dstt[0].tt[0].macLayer.server incomingPacketLengths:vector ETV
attr interpolationmode none
attr recordingmode vector
attr source packetLength(packetPulled)
attr title "incoming packet lengths"
attr unit b
vector 277 TimeSyncUEUE.FGS.dstt[0].tt[0].macLayer.server outgoingPacketLengths:vector ETV
attr interpolationmode none
attr recordingmode vector
attr source packetLength(packetPushed)
attr title "outgoing packet lengths"
attr unit b
vector 278 TimeSyncUEUE.FGS.dstt[0].tt[0].macLayer.outboundEmitter incomingPacketLengths:vector ETV
attr interpolationmode none
attr recordingmode vector
attr source "packetLength(merge(packetPushedIn, packetPulledIn))"
attr title "incoming packet lengths"
attr unit b
vector 279 TimeSyncUEUE.FGS.dstt[0].tt[0].macLayer.outboundEmitter outgoingPacketLengths:vector ETV
attr interpolationmode none
attr recordingmode vector
attr source "packetLength(merge(packetPushedOut, packetPulledOut))"
attr title "outgoing packet lengths"
attr unit b
vector 280 TimeSyncUEUE.FGS.dstt[0].tt[0].phyLayer.phyHeaderInserter incomingPacketLengths:vector ETV
attr interpolationmode none
attr recordingmode vector
attr source "packetLength(merge(packetPushedIn, packetPulledIn))"
attr title "incoming packet lengths"
attr unit b
vector 281 TimeSyncUEUE.FGS.dstt[0].tt[0].phyLayer.phyHeaderInserter outgoingPacketLengths:vector ETV
attr interpolationmode none
attr recordingmode vector
attr source "packetLength(merge(packetPushedOut, packetPulledOut))"
attr title "outgoing packet lengths"
attr unit b
vector 282 TimeSyncUEUE.FGS.dstt[0].tt[0].phyLayer.outboundEmitter incomingPacketLengths:vector ETV
attr interpolationmode none
attr recordingmode vector
attr source "packetLength(merge(packetPushedIn, packetPulledIn))"
[...]
337	7680230 25422 2492 44979 5.50014885 100 946 -509.29180749297 14720 8180450.7081925 80399900978.145
338	7705652 30895 2507 44947 5.506229307341 99.806229307341 944 0 0.1856 117.0704 15.82379297356
339	7736547 28794 2517 44943 5.511517445102 99.811517445102 944 -501.90244056937 18240 8050058.0975594 85659490306.06
340	7765341 28794 2517 44943 5.511517445102 99.811517445102 944 -501.90244056937 18240 8050058.0975594 85659490306.06
341	7794135 28794 2518 44945 5.511517445102 99.811517445102 944 -501.90244056937 18240 8050058.0975594 85659490306.06
342	7822929 29421 2518 44945 5.511517445102 99.811517445102 944 -620.43540561612 22720 9949459.5645944 131242010540.09
343	7852350 29421 2518 44945 5.511517445102 99.811517445102 944 -620.43540561612 22720 9949459.5645944 131242010540.09
344	7881771 29421 2518 44945 5.511517445102 99.811517445102 944 -627.88604913335 22880 10070092.113951 134290979840.89
345	7911192 29421 2518 44945 5.511517445102 99.811517445102 944 -627.88604913335 22880 10070092.113951 134290979840.89
346	7940613 29421 2518 44945 5.511517445102 99.811517445102 944 -661.75261057527 24160 10612778.247389 149266511516.52
347	7970034 29469 2518 44979 5.511517445102 100 946 -661.75261057527 24160 10625418.247389 149426281116.52
348	7999503 29469 2519 44979 5.511517445102 100 946 -661.75261057527 24160 10625418.247389 149426281116.52
349	8028972 29469 2519 44979 5.511517445102 100 946 -661.75261057527 24160 10625418.247389 149426281116.52
350	8058441 29469 2519 44979 5.511517445102 100 946 -661.75261057527 24160 10625418.247389 149426281116.52
351	8087910 29421 2519 44947 5.511517445102 99.811517445102 944 -661.75261057527 24160 10612778.247389 149266511516.52
352	8117331 29421 2519 44947 5.511517445102 99.811517445102 944 -661.75261057527 24160 10612778.247389 149266511516.52
353	8146752 29421 2519 44947 5.511517445102 99.811517445102 944 -661.75261057527 24160 10612778.247389 149266511516.52
354	8176173 29421 2519 44947 5.511517445102 99.811517445102 944 -729.48573345913 26720 11698150.514267 181597767349.44
355	8205594 29421 2519 44947 5.511517445102 99.811517445102 944 -729.48573345913 26720 11698150.514267 181597767349.44
356	8235015 29421 2519 44947 5.511517445102 99.811517445102 944 -729.48573345913 26720 11698150.514267 181597767349.44
357	8264436 29468 2520 44979 5.511599045102 100 946 -729.4863634416 26720 11712070.513637 181791533750.35
358	8293904 29469 2521 44979 5.511599095102 100 946 -729.48636382762 26720 11712070.513636 181791533750.36
359	8323373 29421 2521 44949 5.511599095102 99.811599095102 944 -729.48636382762 26720 11698150.513636 181597767350.36
360	8352794 29421 2521 44949 5.511599095102 99.811599095102 944 -729.48636382762 26720 11698150.513636 181597767350.36
361	8382215 29421 2521 44949 5.511599095102 99.811599095102 944 -729.48636382762 26720 11698150.513636 181597767350.36
362	8411636 29421 2521 44949 5.511599095102 99.811599095102 944 -661.75318241372 24160 10612778.246818 149266511517.27
363	8441057 29421 2521 44949 5.511599095102 99.811599095102 944 -661.75318241372 24160 10612778.246818 149266511517.27
364	8470478 29421 2521 44949 5.511599095102 99.811599095102 944 -661.75318241372 24160 10612778.246818 149266511517.27
365	8499899 29421 2521 44949 5.511599095102 99.811599095102 944 -661.75318241372 24160 10612778.246818 149266511517.27
366	8529320 29421 2521 44949 5.511599095102 99.811599095102 944 -661.75318241372 24160 10612778.246818 149266511517.27
367	8558741 29421 2521 44949 5.511599095102 99.811599095102 944 -661.75318241372 24160 10612778.246818 149266511517.27
368	8588162 29421 2521 44949 5.511599095102 99.811599095102 944 -627.88659170678 22880 10070092.113408 134290979841.57
369	8617583 29421 2521 44949 5.511599095102 99.811599095102 944 -627.88659170678 22880 10070092.113408 134290979841.57
370	8647004 28794 2521 44949 5.511599095102 99.811599095102 944 -509.35352423247 18400 8170690.6464758 88124624241.013
371	8675798 29031 2641 44972 5.880112949741 99.980112949741 942 -506.92793516127 13920 7624773.0720648 71793050575.931
372	8704829 29031 2641 44972 5.880112949741 99.980112949741 942 -506.92793516127 13920 7624773.0720648 71793050575.931
373	8733860 29031 2644 44976 5.880112949741 99.980112949741 942 -506.92793516127 13920 7624773.0720648 71793050575.931
374	8762891 29524 2644 44976 5.880112949741 99.980112949741 942 -625.92510303951 17280 9414414.074897 109286126182.23
375	8792415 29524 2644 44976 5.880112949741 99.980112949741 942 -625.92510303951 17280 9414414.074897 109286126182.23
376	8821939 29524 2644 44976 5.880112949741 99.980112949741 942 -633.91491288276 17440 9534726.0850871 111938040248.12
377	8851463 29524 2644 44976 5.880112949741 99.980112949741 942 -633.91491288276 17440 9534726.0850871 111938040248.12
378	8880987 29524 2644 44976 5.880112949741 99.980112949741 942 -667.91410370511 18400 10046052.085896 124247690909.25
379	8910511 29500 2654 44954 5.885294057992 99.885294057992 941 -667.95087304141 18400 10038532.049127 123960126158.37
380	8940011 29500 2654 44954 5.885294057992 99.885294057992 941 -633.94981052976 17440 9527526.0501895 111678840292.36
381	8969511 29500 2654 44954 5.885294057992 99.885294057992 941 -633.94981052976 17440 9527526.0501895 111678840292.36
382	8999011 29010 2654 44954 5.885294057992 99.885294057992 941 -514.94609173898 14080 7739005.0539083 73760162769.477
383	9028021 29010 2654 44954 5.885294057992 99.885294057992 941 -514.94609173898 14080 7739005.0539083 73760162769.477
384	9057031 29010 2654 44954 5.885294057992 99.885294057992 941 -514.94609173898 14080 7739005.0539083 73760162769.477
385	9086041 29010 2654 44954 5.885294057992 99.885294057992 941 -514.94609173898 14080 7739005.0539083 73760162769.477
386	9115051 29010 2654 44954 5.885294057992 99.885294057992 941 -514.94609173898 14080 7739005.0539083 73760162769.477
387	9144061 29057 2654 44979 5.885294057992 100 943 -514.94609173898 14080 7745085.0539083 73797129169.477
388	9173118 26041 2854 44937 6.255026982356 99.855026982356 937 0 0 0 0
389	9199159 29430 2859 44979 6.255026982356 100 939 -674.16948307303 12640 9466685.8305169 106731078504.49
390	9228589 29430 2861 44979 6.255026982356 100 939 -674.16948307303 12640 9466685.8305169 106731078504.49
391	9258019 29430 2861 44979 6.255026982356 100 939 -674.16948307303 12640 9466685.8305169 106731078504.49
392	9287449 29430 2861 44979 6.255026982356 100 939 -674.16948307303 12640 9466685.8305169 106731078504.49
393	9316879 29382 2861 44929 6.255026982356 99.855026982356 937 -674.16948307303 12640 9454045.8305169 106571308904.49
394	9346261 29382 2861 44929 6.255026982356 99.855026982356 937 -674.16948307303 12640 9454045.8305169 106571308904.49
395	9375643 29272 2868 44937 6.261104569049 99.861104569049 937 -674.2131930342 12640 9454045.786807 110806572963.43
396	9404915 29273 2868 44937 6.261104569049 99.861104569049 937 -742.48794675918 13920 10411417.512053 134315456888.35
397	9434188 29273 2868 44937 6.261104569049 99.861104569049 937 -742.48794675918 13920 10411417.512053 134315456888.35
398	9463461 29273 2868 44937 6.261104569049 99.861104569049 937 -742.48794675918 13920 10411417.512053 134315456888.35
399	9492734 29321 2869 44979 6.261104569049 100 939 -742.48794675918 13920 10425337.512053 134509223288.35
400	9522055 29273 2869 44938 6.261104569049 99.861104569049 937 -742.48794675918 13920 10411417.512053 134315456888.35
401	9551328 29273 2869 44938 6.261104569049 99.861104569049 937 -742.48794675918 13920 10411417.512053 134315456888.35
402	9580601 29273 2869 44938 6.261104569049 99.861104569049 937 -742.48794675918 13920 10411417.512053 134315456888.35
403	9609874 29272 2869 44938 6.261104569049 99.861104569049 937 -674.2131930342 12640 9454045.786807 110806572963.43
404	9639146 29272 2869 44938 6.261104569049 99.861104569049 937 -674.2131930342 12640 9454045.786807 110806572963.43
405	9668418 29272 2869 44938 6.261104569049 99.861104569049 937 -674.2131930342 12640 9454045.786807 110806572963.43
406	9697690 29272 2869 44938 6.261104569049 99.861104569049 937 -674.2131930342 12640 9454045.786807 110806572963.43
407	9726962 29272 2869 44938 6.261104569049 99.861104569049 937 -674.2131930342 12640 9454045.786807 110806572963.43
408	9756234 29321 2870 44979 6.261104569049 100 939 -742.48794675918 13920 10425337.512053 134509223288.35
409	9785555 12424 22065 44565 49.00013605 99.00013605 501 0 0.064 6.4 0.4096
410	9797979 12336 22067 44567 49.00013605 99.00013605 501 -847.06108318942 4320 426832.93891681 1848295112.4787
411	9810315 12336 22067 44567 49.00013605 99.00013605 501 -847.06108318942 4320 426832.93891681 1848295112.4787
412	9822651 12336 22069 44569 49.00013605 99.00013605 501 -847.06108318942 4320 426832.93891681 1848295112.4787
413	9834987 12336 22069 44569 49.00013605 99.00013605 501 -1066.6695121645 5440 537493.33048784 2930904183.8482
414	9847323 12336 22069 44569 49.00013605 99.00013605 501 -1066.6695121645 5440 537493.33048784 2930904183.8482
415	9859659 12336 22069 44569 49.00013605 99.00013605 501 -1066.6695121645 5440 537493.33048784 2930904183.8482
416	9871995 12336 22069 44569 49.00013605 99.00013605 501 -1066.6695121645 5440 537493.33048784 2930904183.8482
417	9884331 12336 22069 44569 49.00013605 99.00013605 501 -1129.4147775859 5760 569110.58522241 3285857977.7398
418	9896667 12571 22069 44979 49.00013605 100 511 -1129.4147775859 5760 574870.58522241 3319035577.7398
419	9909238 12571 22079 44979 49.00014565 100 511 -1129.4149901822 5760 574870.58500982 3319035578.22
420	9921809 12571 22079 44979 49.00014565 100 511 -1129.4149901822 5760 574870.58500982 3319035578.22
421	9934380 12571 22079 44979 49.00014565 100 511 -1129.4149901822 5760 574870.58500982 3319035578.22
422	9946951 12336 22079 44579 49.00014565 99.00014565 501 -1129.4149901822 5760 569110.58500982 3285857978.22
423	9959287 12336 22079 44579 49.00014565 99.00014565 501 -1129.4149901822 5760 569110.58500982 3285857978.22
424	9971623 12336 22079 44579 49.00014565 99.00014565 501 -1129.4149901822 5760 569110.58500982 3285857978.22
425	9983959 12336 22079 44579 49.00014565 99.00014565 501 -1254.9055446469 6400 632345.09445535 4056614787.926
426	9996295 12336 22079 44579 49.00014565 99.00014565 501 -1254.9055446469 6400 632345.09445535 4056614787.926
427	10008631 12336 22079 44579 49.00014565 99.00014565 501 -1254.9055446469 6400 632345.09445535 4056614787.926
428	10020967 12571 22086 44979 49.00020965 100 511 -1254.9071194368 6400 638745.09288056 4097574791.8784
429	10033538 12061 22088 44979 49.0002097 100 511 -1254.9071206671 6400 638745.09287933 4097574791.8815
430	10045599 11835 22088 44588 49.0002097 99.0002097 501 -1254.9071206671 6400 632345.09287933 4056614791.8815
431	10057434 11835 22088 44588 49.0002097 99.0002097 501 -1254.9071206671 6400 632345.09287933 4056614791.8815
432	10069269 11835 22088 44588 49.0002097 99.0002097 501 -1254.9071206671 6400 632345.09287933 4056614791.8815
433	10081104 11835 22088 44588 49.0002097 99.0002097 501 -1129.4164086004 5760 569110.5835914 3285857981.424
434	10092939 11835 22088 44588 49.0002097 99.0002097 501 -1129.4164086004 5760 569110.5835914 3285857981.424
435	10104774 11835 22088 44588 49.0002097 99.0002097 501 -1129.4164086004 5760 569110.5835914 3285857981.424
436	10116609 11835 22088 44588 49.0002097 99.0002097 501 -1129.4164086004 5760 569110.5835914 3285857981.424
437	10128444 11835 22088 44588 49.0002097 99.0002097 501 -1129.4164086004 5760 569110.5835914 3285857981.424
438	10140279 11835 22088 44588 49.0002097 99.0002097 501 -1129.4164086004 5760 569110.5835914 3285857981.424
439	10152114 11835 22088 44588 49.0002097 99.0002097 501 -1066.6710525671 5440 537493.32894743 2930904187.1344
440	10163949 11835 22088 44588 49.0002097 99.0002097 501 -1066.6710525671 5440 537493.32894743 2930904187.1344
441	10175784 11835 22088 44588 49.0002097 99.0002097 501 -847.06230645031 4320 426832.93769355 1848295114.551
442	10187619 444 44087 44974 98.000064 99.900064 20 0 0.064 0.064 0.004096
443	10188063 444 44088 44975 98.000064 99.900064 20 0 0.064 0.064 0.004096
444	10188507 444 44089 44978 98.000064 99.900064 20 0 0.064 0.064 0.004096
445	10188951 189 44520 44970 99 100 11 -43200 0 -43200 1866240000
446	10189140 189 44520 44970 99 100 11 -54400 0 -54400 2959360000
447	10189329 189 44520 44970 99 100 11 -54400 0 -54400 2959360000
448	10189518 189 44520 44970 99 100 11 -54400 0 -54400 2959360000
449	10189707 189 44520 44970 99 100 11 -54400 0 -54400 2959360000
450	10189896 189 44520 44970 99 100 11 -57600 0 -57600 3317760000
451	10190085 189 44520 44970 99 100 11 -57600 0 -57600 3317760000
452	10190274 189 44521 44971 99 100 11 -43200 0 -43200 1866240000
453	10190463 189 44521 44971 99 100 11 -54400 0 -54400 2959360000
454	10190652 189 44521 44971 99 100 11 -54400 0 -54400 2959360000
455	10190841 189 44521 44971 99 100 11 -54400 0 -54400 2959360000
456	10191030 189 44521 44971 99 100 11 -54400 0 -54400 2959360000
457	10191219 189 44521 44971 99 100 11 -57600 0 -57600 3317760000
458	10191408 189 44521 44971 99 100 11 -57600 0 -57600 3317760000
459	10191597 189 44524 44974 99 100 11 -57600 0 -57600 3317760000
460	10191786 189 44524 44974 99 100 11 -57600 0 -57600 3317760000
461	10191975 189 44524 44974 99 100 11 -57600 0 -57600 3317760000
462	10192164 189 44524 44974 99 100 11 -57600 0 -57600 3317760000
463	10192353 189 44524 44974 99 100 11 -57600 0 -57600 3317760000
464	10192542 189 44524 44974 99 100 11 -57600 0 -57600 3317760000
465	10192731 189 44524 44974 99 100 11 -64000 0 -64000 4096000000
466	10192920 189 44524 44974 99 100 11 -64000 0 -64000 4096000000
467	10193109 189 44524 44974 99 100 11 -64000 0 -64000 4096000000
468	10193298 189 44525 44975 99 100 11 -57600 0 -57600 3317760000
469	10193487 189 44525 44975 99 100 11 -57600 0 -57600 3317760000
470	10193676 189 44525 44975 99 100 11 -57600 0 -57600 3317760000
471	10193865 189 44525 44975 99 100 11 -57600 0 -57600 3317760000
472	10194054 189 44525 44975 99 100 11 -57600 0 -57600 3317760000
473	10194243 189 44525 44975 99 100 11 -57600 0 -57600 3317760000
474	10194432 189 44525 44975 99 100 11 -64000 0 -64000 4096000000
475	10194621 189 44525 44975 99 100 11 -64000 0 -64000 4096000000
476	10194810 189 44525 44975 99 100 11 -64000 0 -64000 4096000000
477	10194999 189 44526 44976 99 100 11 -57600 0 -57600 3317760000
478	10195188 189 44528 44978 99 100 11 -57600 0 -57600 3317760000
479	10195377 189 44528 44978 99 100 11 -57600 0 -57600 3317760000
480	10195566 189 44528 44978 99 100 11 -57600 0 -57600 3317760000
481	10195755 189 44528 44978 99 100 11 -57600 0 -57600 3317760000
482	10195944 189 44528 44978 99 100 11 -57600 0 -57600 3317760000
483	10196133 189 44528 44978 99 100 11 -57600 0 -57600 3317760000
484	10196322 189 44528 44978 99 100 11 -64000 0 -64000 4096000000
485	10196511 189 44528 44978 99 100 11 -64000 0 -64000 4096000000
486	10196700 189 44528 44978 99 100 11 -64000 0 -64000 4096000000
487	10196889 251 44537 44979 99.000064 100 11 -64004.096262161 0 -64004.096262161 4096524338.3359
488	10197140 251 44538 44979 99.000064 100 11 -64004.096262161 0 -64004.096262161 4096524338.3359
489	10197391 251 44539 44979 99.000064 100 11 -64004.096262161 0 -64004.096262161 4096524338.3359
490	10197642 271 44540 44979 99.00006405 100 11 -64004.099462571 0 -64004.099462571 4096524748.0146
491	10197913 39 44540 44540 99.00006405 99.00006405 1 -64004.099462571 -64004.099462571 -64004.099462571 4096524748.0146
492	10197952 39 44540 44540 99.00006405 99.00006405 1 -64004.099462571 -64004.099462571 -64004.099462571 4096524748.0146
493	10197991 39 44540 44540 99.00006405 99.00006405 1 -64004.099462571 -64004.099462571 -64004.099462571 4096524748.0146
494	10198030 39 44540 44540 99.00006405 99.00006405 1 -57603.689516314 -57603.689516314 -57603.689516314 3318185045.8918
495	10198069 39 44540 44540 99.00006405 99.00006405 1 -57603.689516314 -57603.689516314 -57603.689516314 3318185045.8918
496	10198108 39 44540 44540 99.00006405 99.00006405 1 -57603.689516314 -57603.689516314 -57603.689516314 3318185045.8918
497	10198147 39 44540 44540 99.00006405 99.00006405 1 -57603.689516314 -57603.689516314 -57603.689516314 3318185045.8918
498	10198186 39 44540 44540 99.00006405 99.00006405 1 -57603.689516314 -57603.689516314 -57603.689516314 3318185045.8918
499	10198225 39 44540 44540 99.00006405 99.00006405 1 -57603.689516314 -57603.689516314 -57603.689516314 3318185045.8918
500	10198264 39 44540 44540 99.00006405 99.00006405 1 -54403.484543185 -54403.484543185 -54403.484543185 2959739130.4406
501	10198303 39 44540 44540 99.00006405 99.00006405 1 -54403.484543185 -54403.484543185 -54403.484543185 2959739130.4406
502	10198342 39 44540 44540 99.00006405 99.00006405 1 -43202.767137235 -43202.767137235 -43202.767137235 1866479088.3142
503	10198381 39 44540 44540 99.00006405 99.00006405 1 -43202.767137235 -43202.767137235 -43202.767137235 1866479088.3142
504	10198420 39 44540 44540 99.00006405 99.00006405 1 -43202.767137235 -43202.767137235 -43202.767137235 1866479088.3142
505	10198459 39 44540 44540 99.00006405 99.00006405 1 -43202.767137235 -43202.767137235 -43202.767137235 1866479088.3142
506	10198498 39 44540 44540 99.00006405 99.00006405 1 -43202.767137235 -43202.767137235 -43202.767137235 1866479088.3142
507	10198537 271 44540 44979 99.00006405 100 11 -43202.767137235 0 -43202.767137235 1866479088.3142
508	10198808 271 44541 44979 99.00006405 100 11 -64004.099462571 0 -64004.099462571 4096524748.0146
509	10199079 39 44541 44541 99.00006405 99.00006405 1 -64004.099462571 -64004.099462571 -64004.099462571 4096524748.0146
510	10199118 39 44541 44541 99.00006405 99.00006405 1 -64004.099462571 -64004.099462571 -64004.099462571 4096524748.0146
511	10199157 39 44541 44541 99.00006405 99.00006405 1 -64004.099462571 -64004.099462571 -64004.099462571 4096524748.0146
512	10199196 39 44541 44541 99.00006405 99.00006405 1 -57603.689516314 -57603.689516314 -57603.689516314 3318185045.8918
513	10199235 39 44541 44541 99.00006405 99.00006405 1 -57603.689516314 -57603.689516314 -57603.689516314 3318185045.8918
514	10199274 39 44541 44541 99.00006405 99.00006405 1 -57603.689516314 -57603.689516314 -57603.689516314 3318185045.8918
515	10199313 39 44541 44541 99.00006405 99.00006405 1 -57603.689516314 -57603.689516314 -57603.689516314 3318185045.8918
516	10199352 39 44541 44541 99.00006405 99.00006405 1 -57603.689516314 -57603.689516314 -57603.689516314 3318185045.8918
517	10199391 271 44542 44979 99.00006405 100 11 -64004.099462571 0 -64004.099462571 4096524748.0146
518	10199662 39 44542 44542 99.00006405 99.00006405 1 -64004.099462571 -64004.099462571 -64004.099462571 4096524748.0146
519	10199701 39 44542 44542 99.00006405 99.00006405 1 -64004.099462571 -64004.099462571 -64004.099462571 4096524748.0146
520	10199740 39 44542 44542 99.00006405 99.00006405 1 -64004.099462571 -64004.099462571 -64004.099462571 4096524748.0146
521	10199779 39 44542 44542 99.00006405 99.00006405 1 -57603.689516314 -57603.689516314 -57603.689516314 3318185045.8918
522	10199818 39 44542 44542 99.00006405 99.00006405 1 -57603.689516314 -57603.689516314 -57603.689516314 3318185045.8918
523	10199857 39 44542 44542 99.00006405 99.00006405 1 -57603.689516314 -57603.689516314 -57603.689516314 3318185045.8918
524	10199896 39 44542 44542 99.00006405 99.00006405 1 -57603.689516314 -57603.689516314 -57603.689516314 3318185045.8918
525	10199935 39 44542 44542 99.00006405 99.00006405 1 -57603.689516314 -57603.689516314 -57603.689516314 3318185045.8918
526	10199974 39 44542 44542 99.00006405 99.00006405 1 -57603.689516314 -57603.689516314 -57603.689516314 3318185045.8918
527	10200013 39 44542 44542 99.00006405 99.00006405 1 -54403.484543185 -54403.484543185 -54403.484543185 2959739130.4406
528	10200052 39 44542 44542 99.00006405 99.00006405 1 -54403.484543185 -54403.484543185 -54403.484543185 2959739130.4406
529	10200091 39 44542 44542 99.00006405 99.00006405 1 -43202.767137235 -43202.767137235 -43202.767137235 1866479088.3142

