version 3
run DL-0-20241203-15:13:27-5159
attr configname DL
attr datetime 20241203-15:13:27
attr datetimef 20241203-151327
attr experiment DL
attr inifile omnetpp.ini
attr iterationvars ""
attr iterationvarsd ""
attr iterationvarsf ""
attr measurement ""
attr network TestGptpQoS2
attr processid 5159
attr repetition 0
attr replication #0
attr resultdir results
attr runnumber 0
attr seedset 0
config image-path ../../../inet4.5.4/images
config *.**.hasTimeSynchronization true
config *.switch5GC.gptp.gptpNodeType "\"MASTER_NODE\""
config *.switch5GC.gptp.masterPorts "[\"eth0\"]"
config *.switch5GC.gptp.slavePort "\"\""
config *.switchCell1.gptp.slavePort "\"eth0\""
config *.switchCell1.gptp.masterPorts []
config *.switchCell2.gptp.slavePort "\"eth0\""
config *.switchCell2.gptp.masterPorts []
config *.FGS.nwtt[*].gptp.domain[*].slavePort "\"eth0\""
config *.FGS.nwtt[*].gptp.domain[*].masterPorts "[\"tt0\",\"tt1\"]"
config *.FGS.dstt[*].gptp.domain[*].slavePort "\"tt0\""
config *.FGS.dstt[*].gptp.domain[*].masterPorts "[\"eth0\"]"
config **.referenceClock "\"switch5GC.clock\""
config *.visualizer.dataLinkVisualizer[0].displayLinks true
config *.visualizer.dataLinkVisualizer[0].activityLevel "\"protocol\""
config *.visualizer.dataLinkVisualizer[0].packetFilter "\"GptpSync\""
config *.visualizer.dataLinkVisualizer[0].lineColor "\"blue2\""
config *.visualizer.numInfoVisualizers 3
config *.visualizer.infoVisualizer[0].modules "\"*.switch5GC.clock\""
config *.visualizer.infoVisualizer[1].modules "\"*.switchCell1.clock\""
config *.visualizer.infoVisualizer[1].placementHint "\"topLeft\""
config *.visualizer.infoVisualizer[2].modules "\"*.switchCell2*.clock\""
config *.visualizer.infoVisualizer[2].placementHint "\"topRight\""
config *.switch5GC.clock.displayStringTextFormat "\"time: %T\""
config *.switchCell1.clock.displayStringTextFormat "\"diff: %d\""
config *.switchCell2.clock.displayStringTextFormat "\"diff: %d\""
config *.FGS.**.clock.typename IdealClock
config **.clock.oscillator.typename ConstantDriftOscillator
config *.switch5GC.clock.oscillator.driftRate 0ppm
config **.oscillator.driftRate 100ppm
config network TestGptpQoS2
config sim-time-limit 10s
config **.TSNAppsTableFile "xmldoc(\"config/app.xml\")"
config *.histogramContainer.histograms "{Uplink: \"../../../deterministic6g_data/PD-Wireless-5G-1/s1-UL_wall.xml\", Downlink: \"../../../deterministic6g_data/PD-Wireless-5G-1/s10-DL_wall.xml\", D2D: \"../../../deterministic6g_data/PD-Wireless-5G-1/testeD2D.xml\"}"
config *.FGS.d*.delayUplink "rngProvider(\"histogramContainer\",\"Uplink\")"
config *.FGS.n*.delayDownlink "rngProvider(\"histogramContainer\",\"Downlink\")"
config *.FGS.d*.delayD2D "rngProvider(\"histogramContainer\",\"D2D\")"
config *.FGS.dstt[*].tt[1].delayLayer.delay "rngProvider(\"histogramContainer\",\"D2D\")"
config *.**.tt[*].**.delayQfi "{1:rngProvider(\"histogramContainer\",\"D2D\"),3:rngProvider(\"histogramContainer\",\"D2D\"),4:rngProvider(\"histogramContainer\",\"D2D\"),65:rngProvider(\"histogramContainer\",\"D2D\"),67:rngProvider(\"histogramContainer\",\"D2D\"),72:rngProvider(\"histogramContainer\",\"D2D\"),86:rngProvider(\"histogramContainer\",\"D2D\"),88:rngProvider(\"histogramContainer\",\"D2D\")}"
config *.visualizer.typename IntegratedMultiCanvasVisualizer
config *.visualizer.infoVisualizer[*].displayInfos true

par TestGptpQoS2.switchCell1.ethg$o[0].channel typename "\"inet.node.ethernet.Eth10M\""
par TestGptpQoS2.switchCell1.ethg$o[0].channel disabled false
attr mutable ""
par TestGptpQoS2.switchCell1.ethg$o[0].channel delay 5e-08s
attr mutable ""
attr unit s
par TestGptpQoS2.switchCell1.ethg$o[0].channel datarate 1e+07bps
attr mutable ""
attr unit bps
par TestGptpQoS2.switchCell1.ethg$o[0].channel ber 0
attr mutable ""
par TestGptpQoS2.switchCell1.ethg$o[0].channel per 0
attr mutable ""
par TestGptpQoS2.switchCell1.ethg$o[0].channel length 10m
attr unit m
par TestGptpQoS2.FGS.dsttg$o[0].channel typename "\"inet.node.ethernet.Eth10M\""
par TestGptpQoS2.FGS.dsttg$o[0].channel disabled false
attr mutable ""
par TestGptpQoS2.FGS.dsttg$o[0].channel delay 5e-08s
attr mutable ""
attr unit s
par TestGptpQoS2.FGS.dsttg$o[0].channel datarate 1e+07bps
attr mutable ""
attr unit bps
par TestGptpQoS2.FGS.dsttg$o[0].channel ber 0
attr mutable ""
par TestGptpQoS2.FGS.dsttg$o[0].channel per 0
attr mutable ""
par TestGptpQoS2.FGS.dsttg$o[0].channel length 10m
attr unit m
par TestGptpQoS2.switchCell2.ethg$o[0].channel typename "\"inet.node.ethernet.Eth10M\""
par TestGptpQoS2.switchCell2.ethg$o[0].channel disabled false
attr mutable ""
par TestGptpQoS2.switchCell2.ethg$o[0].channel delay 5e-08s
attr mutable ""
attr unit s
par TestGptpQoS2.switchCell2.ethg$o[0].channel datarate 1e+07bps
attr mutable ""
attr unit bps
par TestGptpQoS2.switchCell2.ethg$o[0].channel ber 0
attr mutable ""
par TestGptpQoS2.switchCell2.ethg$o[0].channel per 0
attr mutable ""
par TestGptpQoS2.switchCell2.ethg$o[0].channel length 10m
attr unit m
par TestGptpQoS2.FGS.dsttg$o[1].channel typename "\"inet.node.ethernet.Eth10M\""
par TestGptpQoS2.FGS.dsttg$o[1].channel disabled false
attr mutable ""
par TestGptpQoS2.FGS.dsttg$o[1].channel delay 5e-08s
attr mutable ""
attr unit s
par TestGptpQoS2.FGS.dsttg$o[1].channel datarate 1e+07bps
attr mutable ""
attr unit bps
par TestGptpQoS2.FGS.dsttg$o[1].channel ber 0
attr mutable ""
par TestGptpQoS2.FGS.dsttg$o[1].channel per 0
attr mutable ""
par TestGptpQoS2.FGS.dsttg$o[1].channel length 10m
attr unit m
par TestGptpQoS2.FGS.nwttg$o[0].channel typename "\"inet.node.ethernet.Eth10M\""
par TestGptpQoS2.FGS.nwttg$o[0].channel disabled false
attr mutable ""
par TestGptpQoS2.FGS.nwttg$o[0].channel delay 5e-08s
attr mutable ""
attr unit s
par TestGptpQoS2.FGS.nwttg$o[0].channel datarate 1e+07bps
attr mutable ""
attr unit bps
par TestGptpQoS2.FGS.nwttg$o[0].channel ber 0
attr mutable ""
par TestGptpQoS2.FGS.nwttg$o[0].channel per 0
attr mutable ""
par TestGptpQoS2.FGS.nwttg$o[0].channel length 10m
attr unit m
par TestGptpQoS2.switch5GC.ethg$o[0].channel typename "\"inet.node.ethernet.Eth10M\""
par TestGptpQoS2.switch5GC.ethg$o[0].channel disabled false
attr mutable ""
par TestGptpQoS2.switch5GC.ethg$o[0].channel delay 5e-08s
attr mutable ""
attr unit s
par TestGptpQoS2.switch5GC.ethg$o[0].channel datarate 1e+07bps
attr mutable ""
attr unit bps
par TestGptpQoS2.switch5GC.ethg$o[0].channel ber 0
attr mutable ""
par TestGptpQoS2.switch5GC.ethg$o[0].channel per 0
attr mutable ""
par TestGptpQoS2.switch5GC.ethg$o[0].channel length 10m
attr unit m
par TestGptpQoS2.visualizer.sceneVisualizer[0] typename "\"inet.visualizer.canvas.scene.SceneCanvasVisualizer\""
par TestGptpQoS2.visualizer.sceneVisualizer[0] visualizationTargetModule "\"^.^\""
par TestGptpQoS2.visualizer.sceneVisualizer[0] visualizationSubjectModule "\"^.^\""
par TestGptpQoS2.visualizer.sceneVisualizer[0] tags "\"\""
par TestGptpQoS2.visualizer.sceneVisualizer[0] physicalEnvironmentModule "\"physicalEnvironment\""
par TestGptpQoS2.visualizer.sceneVisualizer[0] networkNodeVisualizerModule "\"TestGptpQoS2.visualizer.networkNodeVisualizer[0]\""
par TestGptpQoS2.visualizer.sceneVisualizer[0] axisLength "nan m"
attr mutable ""
attr unit m
par TestGptpQoS2.visualizer.sceneVisualizer[0] animationSpeed 0
par TestGptpQoS2.visualizer.sceneVisualizer[0] sceneMinX "nan m"
attr unit m
par TestGptpQoS2.visualizer.sceneVisualizer[0] sceneMinY "nan m"
attr unit m
par TestGptpQoS2.visualizer.sceneVisualizer[0] sceneMinZ "nan m"
attr unit m
par TestGptpQoS2.visualizer.sceneVisualizer[0] sceneMaxX "nan m"
attr unit m
par TestGptpQoS2.visualizer.sceneVisualizer[0] sceneMaxY "nan m"
attr unit m
par TestGptpQoS2.visualizer.sceneVisualizer[0] sceneMaxZ "nan m"
attr unit m
par TestGptpQoS2.visualizer.sceneVisualizer[0] zIndex 0
par TestGptpQoS2.visualizer.sceneVisualizer[0] viewAngle "\"x right y down z out\""
attr mutable ""
par TestGptpQoS2.visualizer.sceneVisualizer[0] viewScale "\"1 1\""
attr mutable ""
par TestGptpQoS2.visualizer.sceneVisualizer[0] viewTranslation "\"0 0\""
attr mutable ""
par TestGptpQoS2.visualizer.sceneVisualizer[0] descriptionFigure "\"\""
par TestGptpQoS2.visualizer.physicalEnvironmentVisualizer[0] typename "\"inet.visualizer.canvas.environment.PhysicalEnvironmentCanvasVisualizer\""
par TestGptpQoS2.visualizer.physicalEnvironmentVisualizer[0] visualizationTargetModule "\"^.^\""
par TestGptpQoS2.visualizer.physicalEnvironmentVisualizer[0] visualizationSubjectModule "\"^.^\""
par TestGptpQoS2.visualizer.physicalEnvironmentVisualizer[0] tags "\"\""
par TestGptpQoS2.visualizer.physicalEnvironmentVisualizer[0] physicalEnvironmentModule "\"physicalEnvironment\""
par TestGptpQoS2.visualizer.physicalEnvironmentVisualizer[0] displayObjects true
par TestGptpQoS2.visualizer.physicalEnvironmentVisualizer[0] zIndex 0
par TestGptpQoS2.visualizer.networkNodeVisualizer[0] typename "\"inet.visualizer.canvas.scene.NetworkNodeCanvasVisualizer\""
par TestGptpQoS2.visualizer.networkNodeVisualizer[0] visualizationTargetModule "\"^.^\""
par TestGptpQoS2.visualizer.networkNodeVisualizer[0] visualizationSubjectModule "\"^.^\""
par TestGptpQoS2.visualizer.networkNodeVisualizer[0] tags "\"\""
par TestGptpQoS2.visualizer.networkNodeVisualizer[0] nodeFilter "\"*\""
attr mutable ""
par TestGptpQoS2.visualizer.networkNodeVisualizer[0] annotationSpacing 4
par TestGptpQoS2.visualizer.networkNodeVisualizer[0] placementPenalty 10
par TestGptpQoS2.visualizer.networkNodeVisualizer[0] zIndex 0
par TestGptpQoS2.visualizer.networkConnectionVisualizer[0] typename "\"inet.visualizer.canvas.scene.NetworkConnectionCanvasVisualizer\""
par TestGptpQoS2.visualizer.networkConnectionVisualizer[0] visualizationTargetModule "\"^.^\""
par TestGptpQoS2.visualizer.networkConnectionVisualizer[0] visualizationSubjectModule "\"^.^\""
par TestGptpQoS2.visualizer.networkConnectionVisualizer[0] tags "\"\""
par TestGptpQoS2.visualizer.networkConnectionVisualizer[0] displayNetworkConnections true
par TestGptpQoS2.visualizer.networkConnectionVisualizer[0] nodeFilter "\"\""
attr mutable ""
par TestGptpQoS2.visualizer.networkConnectionVisualizer[0] lineColor "\"black\""
par TestGptpQoS2.visualizer.networkConnectionVisualizer[0] lineStyle "\"solid\""
par TestGptpQoS2.visualizer.networkConnectionVisualizer[0] lineWidth 1
par TestGptpQoS2.visualizer.networkConnectionVisualizer[0] zIndex 0
par TestGptpQoS2.visualizer.mobilityVisualizer[0] typename "\"inet.visualizer.canvas.mobility.MobilityCanvasVisualizer\""
par TestGptpQoS2.visualizer.mobilityVisualizer[0] visualizationTargetModule "\"^.^\""
par TestGptpQoS2.visualizer.mobilityVisualizer[0] visualizationSubjectModule "\"^.^\""
par TestGptpQoS2.visualizer.mobilityVisualizer[0] tags "\"\""
par TestGptpQoS2.visualizer.mobilityVisualizer[0] networkNodeVisualizerModule "\"TestGptpQoS2.visualizer.networkNodeVisualizer[0]\""
par TestGptpQoS2.visualizer.mobilityVisualizer[0] displayMobility true
par TestGptpQoS2.visualizer.mobilityVisualizer[0] animationSpeed 0
par TestGptpQoS2.visualizer.mobilityVisualizer[0] moduleFilter "\"**.mobility\""
attr mutable ""
par TestGptpQoS2.visualizer.mobilityVisualizer[0] displayPositions false
par TestGptpQoS2.visualizer.mobilityVisualizer[0] positionCircleRadius 4
par TestGptpQoS2.visualizer.mobilityVisualizer[0] positionCircleLineWidth 1
par TestGptpQoS2.visualizer.mobilityVisualizer[0] positionCircleLineColor "\"dark\""
par TestGptpQoS2.visualizer.mobilityVisualizer[0] positionCircleFillColor "\"dark\""
par TestGptpQoS2.visualizer.mobilityVisualizer[0] displayOrientations false
par TestGptpQoS2.visualizer.mobilityVisualizer[0] orientationPieRadius 32
par TestGptpQoS2.visualizer.mobilityVisualizer[0] orientationPieSize 0.2
par TestGptpQoS2.visualizer.mobilityVisualizer[0] orientationPieOpacity 0.25
par TestGptpQoS2.visualizer.mobilityVisualizer[0] orientationLineColor "\"black\""
par TestGptpQoS2.visualizer.mobilityVisualizer[0] orientationLineStyle "\"solid\""
par TestGptpQoS2.visualizer.mobilityVisualizer[0] orientationLineWidth 1
par TestGptpQoS2.visualizer.mobilityVisualizer[0] orientationFillColor "\"blue\""
par TestGptpQoS2.visualizer.mobilityVisualizer[0] displayVelocities false
par TestGptpQoS2.visualizer.mobilityVisualizer[0] velocityArrowScale 1
par TestGptpQoS2.visualizer.mobilityVisualizer[0] velocityLineColor "\"black\""
par TestGptpQoS2.visualizer.mobilityVisualizer[0] velocityLineStyle "\"solid\""
par TestGptpQoS2.visualizer.mobilityVisualizer[0] velocityLineWidth 1
par TestGptpQoS2.visualizer.mobilityVisualizer[0] displayMovementTrails false
par TestGptpQoS2.visualizer.mobilityVisualizer[0] movementTrailLineColor "\"dark\""
par TestGptpQoS2.visualizer.mobilityVisualizer[0] movementTrailLineStyle "\"solid\""
par TestGptpQoS2.visualizer.mobilityVisualizer[0] movementTrailLineWidth 1
par TestGptpQoS2.visualizer.mobilityVisualizer[0] trailLength 100
par TestGptpQoS2.visualizer.mobilityVisualizer[0] zIndex 0
par TestGptpQoS2.visualizer.statisticVisualizer[0] typename "\"inet.visualizer.canvas.common.StatisticCanvasVisualizer\""
par TestGptpQoS2.visualizer.statisticVisualizer[0] visualizationTargetModule "\"^.^\""
par TestGptpQoS2.visualizer.statisticVisualizer[0] visualizationSubjectModule "\"^.^\""
par TestGptpQoS2.visualizer.statisticVisualizer[0] tags "\"\""
par TestGptpQoS2.visualizer.statisticVisualizer[0] networkNodeVisualizerModule "\"TestGptpQoS2.visualizer.networkNodeVisualizer[0]\""
par TestGptpQoS2.visualizer.statisticVisualizer[0] displayStatistics true
par TestGptpQoS2.visualizer.statisticVisualizer[0] signalName "\"\""
par TestGptpQoS2.visualizer.statisticVisualizer[0] statisticName "\"\""
par TestGptpQoS2.visualizer.statisticVisualizer[0] statisticUnit "\"\""
par TestGptpQoS2.visualizer.statisticVisualizer[0] statisticExpression "\"\""
par TestGptpQoS2.visualizer.statisticVisualizer[0] sourceFilter "\"**\""
attr mutable ""
par TestGptpQoS2.visualizer.statisticVisualizer[0] format "\"%n: %v %u\""
attr mutable ""
par TestGptpQoS2.visualizer.statisticVisualizer[0] unit "\"\""
par TestGptpQoS2.visualizer.statisticVisualizer[0] font "\"<default>\""
par TestGptpQoS2.visualizer.statisticVisualizer[0] textColor "\"black\""
par TestGptpQoS2.visualizer.statisticVisualizer[0] backgroundColor "\"white\""
par TestGptpQoS2.visualizer.statisticVisualizer[0] opacity 1
par TestGptpQoS2.visualizer.statisticVisualizer[0] placementHint "\"top\""
par TestGptpQoS2.visualizer.statisticVisualizer[0] placementPriority 0
par TestGptpQoS2.visualizer.statisticVisualizer[0] zIndex 10
par TestGptpQoS2.visualizer.statisticVisualizer[0] propertyName "\"\""
par TestGptpQoS2.visualizer.statisticVisualizer[0] propertyIndex "\"\""
par TestGptpQoS2.visualizer.infoVisualizer[0] typename "\"inet.visualizer.canvas.common.InfoCanvasVisualizer\""
par TestGptpQoS2.visualizer.infoVisualizer[0] visualizationTargetModule "\"^.^\""
par TestGptpQoS2.visualizer.infoVisualizer[0] visualizationSubjectModule "\"^.^\""
par TestGptpQoS2.visualizer.infoVisualizer[0] tags "\"\""
par TestGptpQoS2.visualizer.infoVisualizer[0] networkNodeVisualizerModule "\"TestGptpQoS2.visualizer.networkNodeVisualizer[0]\""
par TestGptpQoS2.visualizer.infoVisualizer[0] displayInfos true
par TestGptpQoS2.visualizer.infoVisualizer[0] modules "\"*.switch5GC.clock\""
attr mutable ""
par TestGptpQoS2.visualizer.infoVisualizer[0] format "\"%t\""
attr mutable ""
par TestGptpQoS2.visualizer.infoVisualizer[0] font "\"<default>\""
par TestGptpQoS2.visualizer.infoVisualizer[0] textColor "\"black\""
par TestGptpQoS2.visualizer.infoVisualizer[0] backgroundColor "\"white\""
par TestGptpQoS2.visualizer.infoVisualizer[0] opacity 1
par TestGptpQoS2.visualizer.infoVisualizer[0] placementHint "\"top\""
par TestGptpQoS2.visualizer.infoVisualizer[0] placementPriority 0
par TestGptpQoS2.visualizer.infoVisualizer[0] zIndex 10
par TestGptpQoS2.visualizer.infoVisualizer[1] typename "\"inet.visualizer.canvas.common.InfoCanvasVisualizer\""
par TestGptpQoS2.visualizer.infoVisualizer[1] visualizationTargetModule "\"^.^\""
par TestGptpQoS2.visualizer.infoVisualizer[1] visualizationSubjectModule "\"^.^\""
par TestGptpQoS2.visualizer.infoVisualizer[1] tags "\"\""
par TestGptpQoS2.visualizer.infoVisualizer[1] networkNodeVisualizerModule "\"TestGptpQoS2.visualizer.networkNodeVisualizer[0]\""
par TestGptpQoS2.visualizer.infoVisualizer[1] displayInfos true
par TestGptpQoS2.visualizer.infoVisualizer[1] modules "\"*.switchCell1.clock\""
attr mutable ""
par TestGptpQoS2.visualizer.infoVisualizer[1] format "\"%t\""
attr mutable ""
par TestGptpQoS2.visualizer.infoVisualizer[1] font "\"<default>\""
par TestGptpQoS2.visualizer.infoVisualizer[1] textColor "\"black\""
par TestGptpQoS2.visualizer.infoVisualizer[1] backgroundColor "\"white\""
par TestGptpQoS2.visualizer.infoVisualizer[1] opacity 1
par TestGptpQoS2.visualizer.infoVisualizer[1] placementHint "\"topLeft\""
par TestGptpQoS2.visualizer.infoVisualizer[1] placementPriority 0
par TestGptpQoS2.visualizer.infoVisualizer[1] zIndex 10
par TestGptpQoS2.visualizer.infoVisualizer[2] typename "\"inet.visualizer.canvas.common.InfoCanvasVisualizer\""
par TestGptpQoS2.visualizer.infoVisualizer[2] visualizationTargetModule "\"^.^\""
par TestGptpQoS2.visualizer.infoVisualizer[2] visualizationSubjectModule "\"^.^\""
par TestGptpQoS2.visualizer.infoVisualizer[2] tags "\"\""
par TestGptpQoS2.visualizer.infoVisualizer[2] networkNodeVisualizerModule "\"TestGptpQoS2.visualizer.networkNodeVisualizer[0]\""
par TestGptpQoS2.visualizer.infoVisualizer[2] displayInfos true
par TestGptpQoS2.visualizer.infoVisualizer[2] modules "\"*.switchCell2*.clock\""
attr mutable ""
par TestGptpQoS2.visualizer.infoVisualizer[2] format "\"%t\""
attr mutable ""
par TestGptpQoS2.visualizer.infoVisualizer[2] font "\"<default>\""
par TestGptpQoS2.visualizer.infoVisualizer[2] textColor "\"black\""
par TestGptpQoS2.visualizer.infoVisualizer[2] backgroundColor "\"white\""
par TestGptpQoS2.visualizer.infoVisualizer[2] opacity 1
par TestGptpQoS2.visualizer.infoVisualizer[2] placementHint "\"topRight\""
par TestGptpQoS2.visualizer.infoVisualizer[2] placementPriority 0
par TestGptpQoS2.visualizer.infoVisualizer[2] zIndex 10
par TestGptpQoS2.visualizer.energyStorageVisualizer[0] typename "\"inet.visualizer.canvas.power.EnergyStorageCanvasVisualizer\""
par TestGptpQoS2.visualizer.energyStorageVisualizer[0] visualizationTargetModule "\"^.^\""
par TestGptpQoS2.visualizer.energyStorageVisualizer[0] visualizationSubjectModule "\"^.^\""
par TestGptpQoS2.visualizer.energyStorageVisualizer[0] tags "\"\""
par TestGptpQoS2.visualizer.energyStorageVisualizer[0] networkNodeVisualizerModule "\"TestGptpQoS2.visualizer.networkNodeVisualizer[0]\""
par TestGptpQoS2.visualizer.energyStorageVisualizer[0] displayEnergyStorages false
par TestGptpQoS2.visualizer.energyStorageVisualizer[0] energyStorageFilter "\"**\""
par TestGptpQoS2.visualizer.energyStorageVisualizer[0] color "\"green\""
par TestGptpQoS2.visualizer.energyStorageVisualizer[0] width 8
par TestGptpQoS2.visualizer.energyStorageVisualizer[0] height 24
par TestGptpQoS2.visualizer.energyStorageVisualizer[0] spacing 2
par TestGptpQoS2.visualizer.energyStorageVisualizer[0] placementHint "\"right\""
par TestGptpQoS2.visualizer.energyStorageVisualizer[0] placementPriority 0
par TestGptpQoS2.visualizer.energyStorageVisualizer[0] zIndex 10
par TestGptpQoS2.visualizer.mediumVisualizer[0] typename "\"inet.visualizer.canvas.physicallayer.MediumCanvasVisualizer\""
par TestGptpQoS2.visualizer.mediumVisualizer[0] visualizationTargetModule "\"^.^\""
par TestGptpQoS2.visualizer.mediumVisualizer[0] visualizationSubjectModule "\"^.^\""
par TestGptpQoS2.visualizer.mediumVisualizer[0] tags "\"\""
par TestGptpQoS2.visualizer.mediumVisualizer[0] mediumModule "\"radioMedium\""
par TestGptpQoS2.visualizer.mediumVisualizer[0] networkNodeVisualizerModule "\"TestGptpQoS2.visualizer.networkNodeVisualizer[0]\""
par TestGptpQoS2.visualizer.mediumVisualizer[0] nodeFilter "\"*\""
attr mutable ""
par TestGptpQoS2.visualizer.mediumVisualizer[0] interfaceFilter "\"*\""
attr mutable ""
par TestGptpQoS2.visualizer.mediumVisualizer[0] packetFilter "(omnetpp::cValueHolder)holder: \"*\""
attr mutable ""
par TestGptpQoS2.visualizer.mediumVisualizer[0] displaySignals false
par TestGptpQoS2.visualizer.mediumVisualizer[0] signalColor "\"dark\""
par TestGptpQoS2.visualizer.mediumVisualizer[0] signalPropagationAnimationSpeed "nan "
attr mutable ""
par TestGptpQoS2.visualizer.mediumVisualizer[0] signalPropagationAnimationTime 1s
attr unit s
par TestGptpQoS2.visualizer.mediumVisualizer[0] signalPropagationAdditionalTime 0s
attr unit s
par TestGptpQoS2.visualizer.mediumVisualizer[0] signalTransmissionAnimationSpeed "nan "
attr mutable ""
par TestGptpQoS2.visualizer.mediumVisualizer[0] signalTransmissionAnimationTime 1s
attr unit s
par TestGptpQoS2.visualizer.mediumVisualizer[0] signalAnimationSpeedChangeTimeMode "\"realTime\""
attr enum realTime,animationTime,simulationTime
par TestGptpQoS2.visualizer.mediumVisualizer[0] signalAnimationSpeedChangeTime 1s
attr unit s
par TestGptpQoS2.visualizer.mediumVisualizer[0] displaySignalDepartures false
par TestGptpQoS2.visualizer.mediumVisualizer[0] signalDepartureImage "\"misc/signal_departure.png\""
par TestGptpQoS2.visualizer.mediumVisualizer[0] signalDeparturePlacementHint "\"topCenter\""
par TestGptpQoS2.visualizer.mediumVisualizer[0] signalDeparturePlacementPriority 1
par TestGptpQoS2.visualizer.mediumVisualizer[0] displaySignalArrivals false
par TestGptpQoS2.visualizer.mediumVisualizer[0] signalArrivalImage "\"misc/signal_arrival.png\""
par TestGptpQoS2.visualizer.mediumVisualizer[0] signalArrivalPlacementHint "\"topCenter\""
par TestGptpQoS2.visualizer.mediumVisualizer[0] signalArrivalPlacementPriority -1
par TestGptpQoS2.visualizer.mediumVisualizer[0] displayCommunicationRanges false
par TestGptpQoS2.visualizer.mediumVisualizer[0] communicationRangeLineColor "\"blue\""
par TestGptpQoS2.visualizer.mediumVisualizer[0] communicationRangeLineStyle "\"solid\""
par TestGptpQoS2.visualizer.mediumVisualizer[0] communicationRangeLineWidth 1
par TestGptpQoS2.visualizer.mediumVisualizer[0] displayInterferenceRanges false
par TestGptpQoS2.visualizer.mediumVisualizer[0] interferenceRangeLineColor "\"gray\""
par TestGptpQoS2.visualizer.mediumVisualizer[0] interferenceRangeLineStyle "\"solid\""
par TestGptpQoS2.visualizer.mediumVisualizer[0] interferenceRangeLineWidth 1
par TestGptpQoS2.visualizer.mediumVisualizer[0] autoPowerAxis true
par TestGptpQoS2.visualizer.mediumVisualizer[0] signalMinPower "inf dBmW"
attr unit dBmW
par TestGptpQoS2.visualizer.mediumVisualizer[0] signalMaxPower 0dBmW
attr unit dBmW
par TestGptpQoS2.visualizer.mediumVisualizer[0] signalMinPowerDensity "inf dBmWpMHz"
attr unit dBmWpMHz
par TestGptpQoS2.visualizer.mediumVisualizer[0] signalMaxPowerDensity "-inf dBmWpMHz"
attr unit dBmWpMHz
par TestGptpQoS2.visualizer.mediumVisualizer[0] autoTimeAxis true
par TestGptpQoS2.visualizer.mediumVisualizer[0] signalMinTime 0s
attr unit s
par TestGptpQoS2.visualizer.mediumVisualizer[0] signalMaxTime 0s
attr unit s
par TestGptpQoS2.visualizer.mediumVisualizer[0] autoFrequencyAxis true
par TestGptpQoS2.visualizer.mediumVisualizer[0] signalMinFrequency "inf Hz"
attr unit Hz
par TestGptpQoS2.visualizer.mediumVisualizer[0] signalMaxFrequency "-inf Hz"
attr unit Hz
par TestGptpQoS2.visualizer.mediumVisualizer[0] displayMainPowerDensityMap false
par TestGptpQoS2.visualizer.mediumVisualizer[0] mainPowerDensityMapPixmapDensity 1
par TestGptpQoS2.visualizer.mediumVisualizer[0] mainPowerDensityMapMinX 0
par TestGptpQoS2.visualizer.mediumVisualizer[0] mainPowerDensityMapMaxX "nan "
par TestGptpQoS2.visualizer.mediumVisualizer[0] mainPowerDensityMapMinY 0
par TestGptpQoS2.visualizer.mediumVisualizer[0] mainPowerDensityMapMaxY "nan "
par TestGptpQoS2.visualizer.mediumVisualizer[0] mainPowerDensityMapZ 0
par TestGptpQoS2.visualizer.mediumVisualizer[0] mainPowerDensityMapFigureXTickCount 3
par TestGptpQoS2.visualizer.mediumVisualizer[0] mainPowerDensityMapFigureYTickCount 3
par TestGptpQoS2.visualizer.mediumVisualizer[0] displayPowerDensityMaps false
par TestGptpQoS2.visualizer.mediumVisualizer[0] powerDensityMapMode "\"auto\""
attr enum total,signal,auto
par TestGptpQoS2.visualizer.mediumVisualizer[0] powerDensityMapPixelMode "\"mean\""
attr enum sample,partition,mean
par TestGptpQoS2.visualizer.mediumVisualizer[0] powerDensityMapApproximationSize 10
par TestGptpQoS2.visualizer.mediumVisualizer[0] powerDensityMapCenterFrequency "nan Hz"
attr mutable ""
attr unit Hz
par TestGptpQoS2.visualizer.mediumVisualizer[0] powerDensityMapBandwidth 0Hz
attr mutable ""
attr unit Hz
par TestGptpQoS2.visualizer.mediumVisualizer[0] powerDensityMapFigureWidth 200
par TestGptpQoS2.visualizer.mediumVisualizer[0] powerDensityMapFigureHeight 120
par TestGptpQoS2.visualizer.mediumVisualizer[0] powerDensityMapPixmapWidth 200
par TestGptpQoS2.visualizer.mediumVisualizer[0] powerDensityMapPixmapHeight 120
par TestGptpQoS2.visualizer.mediumVisualizer[0] powerDensityMapZ 0
par TestGptpQoS2.visualizer.mediumVisualizer[0] powerDensityMapFigureXTickCount 3
par TestGptpQoS2.visualizer.mediumVisualizer[0] powerDensityMapFigureYTickCount 3
par TestGptpQoS2.visualizer.mediumVisualizer[0] displaySpectrums false
par TestGptpQoS2.visualizer.mediumVisualizer[0] spectrumMode "\"auto\""
attr enum total,signal,auto
par TestGptpQoS2.visualizer.mediumVisualizer[0] spectrumFigureWidth 200
par TestGptpQoS2.visualizer.mediumVisualizer[0] spectrumFigureHeight 120
par TestGptpQoS2.visualizer.mediumVisualizer[0] spectrumFigureXTickCount 3
par TestGptpQoS2.visualizer.mediumVisualizer[0] spectrumFigureYTickCount 5
par TestGptpQoS2.visualizer.mediumVisualizer[0] spectrumFigureInterpolationSize 5
par TestGptpQoS2.visualizer.mediumVisualizer[0] spectrumPlacementHint "\"bottomCenter\""
par TestGptpQoS2.visualizer.mediumVisualizer[0] spectrumPlacementPriority -1
par TestGptpQoS2.visualizer.mediumVisualizer[0] displaySpectrograms false
par TestGptpQoS2.visualizer.mediumVisualizer[0] spectrogramMode "\"auto\""
attr enum total,signal,auto
par TestGptpQoS2.visualizer.mediumVisualizer[0] spectrogramPixelMode "\"mean\""
attr enum sample,partition,mean
par TestGptpQoS2.visualizer.mediumVisualizer[0] spectrogramFigureWidth 200
par TestGptpQoS2.visualizer.mediumVisualizer[0] spectrogramFigureHeight 120
par TestGptpQoS2.visualizer.mediumVisualizer[0] spectrogramPixmapWidth 200
par TestGptpQoS2.visualizer.mediumVisualizer[0] spectrogramPixmapHeight 120
par TestGptpQoS2.visualizer.mediumVisualizer[0] spectrogramFigureXTickCount 3
par TestGptpQoS2.visualizer.mediumVisualizer[0] spectrogramFigureYTickCount 5
par TestGptpQoS2.visualizer.mediumVisualizer[0] spectrogramPlacementHint "\"bottomCenter\""
par TestGptpQoS2.visualizer.mediumVisualizer[0] spectrogramPlacementPriority -1
par TestGptpQoS2.visualizer.mediumVisualizer[0] zIndex 0
par TestGptpQoS2.visualizer.mediumVisualizer[0] signalShape "\"ring\""
attr enum ring,sphere
par TestGptpQoS2.visualizer.mediumVisualizer[0] signalOpacity 0.5
par TestGptpQoS2.visualizer.mediumVisualizer[0] signalRingCount 20
par TestGptpQoS2.visualizer.mediumVisualizer[0] signalRingSize 50m
attr unit m
par TestGptpQoS2.visualizer.mediumVisualizer[0] signalFadingDistance 50m
attr unit m
par TestGptpQoS2.visualizer.mediumVisualizer[0] signalFadingFactor 1.2
par TestGptpQoS2.visualizer.mediumVisualizer[0] signalWaveCount 20
par TestGptpQoS2.visualizer.mediumVisualizer[0] signalWaveLength 50m
attr unit m
par TestGptpQoS2.visualizer.mediumVisualizer[0] signalWaveWidth 10m
attr unit m
par TestGptpQoS2.visualizer.mediumVisualizer[0] signalWaveFadingAnimationSpeedFactor 1
par TestGptpQoS2.visualizer.mediumVisualizer[0] displayCommunicationHeat false
par TestGptpQoS2.visualizer.obstacleLossVisualizer[0] typename "\"inet.visualizer.canvas.physicallayer.TracingObstacleLossCanvasVisualizer\""
par TestGptpQoS2.visualizer.obstacleLossVisualizer[0] visualizationTargetModule "\"^.^\""
par TestGptpQoS2.visualizer.obstacleLossVisualizer[0] visualizationSubjectModule "\"^.^\""
par TestGptpQoS2.visualizer.obstacleLossVisualizer[0] tags "\"\""
par TestGptpQoS2.visualizer.obstacleLossVisualizer[0] displayIntersections false
par TestGptpQoS2.visualizer.obstacleLossVisualizer[0] intersectionLineColor "\"red\""
par TestGptpQoS2.visualizer.obstacleLossVisualizer[0] intersectionLineStyle "\"solid\""
par TestGptpQoS2.visualizer.obstacleLossVisualizer[0] intersectionLineWidth 1
par TestGptpQoS2.visualizer.obstacleLossVisualizer[0] displayFaceNormalVectors false
par TestGptpQoS2.visualizer.obstacleLossVisualizer[0] faceNormalLineColor "\"grey\""
par TestGptpQoS2.visualizer.obstacleLossVisualizer[0] faceNormalLineStyle "\"solid\""
par TestGptpQoS2.visualizer.obstacleLossVisualizer[0] faceNormalLineWidth 1
par TestGptpQoS2.visualizer.obstacleLossVisualizer[0] fadeOutMode "\"realTime\""
attr enum realTime,animationTime,simulationTime
par TestGptpQoS2.visualizer.obstacleLossVisualizer[0] fadeOutTime 1s
attr unit s
par TestGptpQoS2.visualizer.obstacleLossVisualizer[0] fadeOutAnimationSpeed 0
par TestGptpQoS2.visualizer.obstacleLossVisualizer[0] zIndex 0
par TestGptpQoS2.visualizer.packetDropVisualizer[0] typename "\"inet.visualizer.canvas.common.PacketDropCanvasVisualizer\""
par TestGptpQoS2.visualizer.packetDropVisualizer[0] visualizationTargetModule "\"^.^\""
par TestGptpQoS2.visualizer.packetDropVisualizer[0] visualizationSubjectModule "\"^.^\""
par TestGptpQoS2.visualizer.packetDropVisualizer[0] tags "\"\""
par TestGptpQoS2.visualizer.packetDropVisualizer[0] displayPacketDrops false
par TestGptpQoS2.visualizer.packetDropVisualizer[0] nodeFilter "\"*\""
attr mutable ""
par TestGptpQoS2.visualizer.packetDropVisualizer[0] interfaceFilter "\"*\""
attr mutable ""
par TestGptpQoS2.visualizer.packetDropVisualizer[0] packetFilter "(omnetpp::cValueHolder)holder: \"*\""
attr mutable ""
par TestGptpQoS2.visualizer.packetDropVisualizer[0] detailsFilter "\"*\""
attr mutable ""
par TestGptpQoS2.visualizer.packetDropVisualizer[0] icon "\"msg/packet_s\""
par TestGptpQoS2.visualizer.packetDropVisualizer[0] iconTintAmount 1
par TestGptpQoS2.visualizer.packetDropVisualizer[0] iconTintColor "\"dark\""
par TestGptpQoS2.visualizer.packetDropVisualizer[0] labelFormat "\"%n\""
attr mutable ""
par TestGptpQoS2.visualizer.packetDropVisualizer[0] labelFont "\"<default>\""
par TestGptpQoS2.visualizer.packetDropVisualizer[0] labelColor "\"black\""
par TestGptpQoS2.visualizer.packetDropVisualizer[0] fadeOutMode "\"realTime\""
attr enum realTime,animationTime,simulationTime
par TestGptpQoS2.visualizer.packetDropVisualizer[0] fadeOutTime 1s
attr unit s
par TestGptpQoS2.visualizer.packetDropVisualizer[0] fadeOutAnimationSpeed 0
par TestGptpQoS2.visualizer.packetDropVisualizer[0] zIndex 10
par TestGptpQoS2.visualizer.packetDropVisualizer[0] dx 32
par TestGptpQoS2.visualizer.packetDropVisualizer[0] dy 64
par TestGptpQoS2.visualizer.queueVisualizer[0] typename "\"inet.visualizer.canvas.common.QueueCanvasVisualizer\""
par TestGptpQoS2.visualizer.queueVisualizer[0] visualizationTargetModule "\"^.^\""
par TestGptpQoS2.visualizer.queueVisualizer[0] visualizationSubjectModule "\"^.^\""
par TestGptpQoS2.visualizer.queueVisualizer[0] tags "\"\""
par TestGptpQoS2.visualizer.queueVisualizer[0] networkNodeVisualizerModule "\"TestGptpQoS2.visualizer.networkNodeVisualizer[0]\""
par TestGptpQoS2.visualizer.queueVisualizer[0] displayQueues false
par TestGptpQoS2.visualizer.queueVisualizer[0] queueFilter "\"**\""
par TestGptpQoS2.visualizer.queueVisualizer[0] color "\"blue\""
par TestGptpQoS2.visualizer.queueVisualizer[0] width 8
par TestGptpQoS2.visualizer.queueVisualizer[0] height 24
par TestGptpQoS2.visualizer.queueVisualizer[0] spacing 2
par TestGptpQoS2.visualizer.queueVisualizer[0] placementHint "\"right\""
par TestGptpQoS2.visualizer.queueVisualizer[0] placementPriority 0
par TestGptpQoS2.visualizer.queueVisualizer[0] zIndex 10
par TestGptpQoS2.visualizer.gateScheduleVisualizer[0] typename "\"inet.visualizer.canvas.common.GateScheduleCanvasVisualizer\""
par TestGptpQoS2.visualizer.gateScheduleVisualizer[0] visualizationTargetModule "\"^.^\""
par TestGptpQoS2.visualizer.gateScheduleVisualizer[0] visualizationSubjectModule "\"^.^\""
par TestGptpQoS2.visualizer.gateScheduleVisualizer[0] tags "\"\""
par TestGptpQoS2.visualizer.gateScheduleVisualizer[0] networkNodeVisualizerModule "\"TestGptpQoS2.visualizer.networkNodeVisualizer[0]\""
par TestGptpQoS2.visualizer.gateScheduleVisualizer[0] displayGateSchedules false
par TestGptpQoS2.visualizer.gateScheduleVisualizer[0] labelFormat "\"%i %D\""
par TestGptpQoS2.visualizer.gateScheduleVisualizer[0] gateFilter "\"**\""
par TestGptpQoS2.visualizer.gateScheduleVisualizer[0] width 100
par TestGptpQoS2.visualizer.gateScheduleVisualizer[0] height 8
par TestGptpQoS2.visualizer.gateScheduleVisualizer[0] spacing 2
par TestGptpQoS2.visualizer.gateScheduleVisualizer[0] placementHint "\"right\""
par TestGptpQoS2.visualizer.gateScheduleVisualizer[0] placementPriority 0
par TestGptpQoS2.visualizer.gateScheduleVisualizer[0] displayDuration 0s
attr mutable ""
attr unit s
par TestGptpQoS2.visualizer.gateScheduleVisualizer[0] currentTimePosition 50
par TestGptpQoS2.visualizer.gateScheduleVisualizer[0] zIndex 10
par TestGptpQoS2.visualizer.radioVisualizer[0] typename "\"inet.visualizer.canvas.physicallayer.RadioCanvasVisualizer\""
par TestGptpQoS2.visualizer.radioVisualizer[0] visualizationTargetModule "\"^.^\""
par TestGptpQoS2.visualizer.radioVisualizer[0] visualizationSubjectModule "\"^.^\""
par TestGptpQoS2.visualizer.radioVisualizer[0] tags "\"\""
par TestGptpQoS2.visualizer.radioVisualizer[0] networkNodeVisualizerModule "\"TestGptpQoS2.visualizer.networkNodeVisualizer[0]\""
par TestGptpQoS2.visualizer.radioVisualizer[0] displayRadios false
par TestGptpQoS2.visualizer.radioVisualizer[0] displayRadioMode true
par TestGptpQoS2.visualizer.radioVisualizer[0] displayReceptionState true
par TestGptpQoS2.visualizer.radioVisualizer[0] displayTransmissionState true
par TestGptpQoS2.visualizer.radioVisualizer[0] displayAntennaLobes false
par TestGptpQoS2.visualizer.radioVisualizer[0] radioFilter "\"**\""
attr mutable ""
par TestGptpQoS2.visualizer.radioVisualizer[0] radioModeImages "\"block/process_vs block/timer_vs block/wrx_vs block/wtx_vs block/wrxtx_vs block/cogwheel_vs\""
par TestGptpQoS2.visualizer.radioVisualizer[0] receptionStateImages "\"- - misc/receiving misc/receiving\""
par TestGptpQoS2.visualizer.radioVisualizer[0] transmissionStateImages "\"- - misc/transmitting\""
par TestGptpQoS2.visualizer.radioVisualizer[0] width 16
par TestGptpQoS2.visualizer.radioVisualizer[0] height 16
par TestGptpQoS2.visualizer.radioVisualizer[0] placementHint "\"bottomRight\""
par TestGptpQoS2.visualizer.radioVisualizer[0] placementPriority 0
par TestGptpQoS2.visualizer.radioVisualizer[0] antennaLobeNormalize false
par TestGptpQoS2.visualizer.radioVisualizer[0] antennaLobeRelativeLabels false
par TestGptpQoS2.visualizer.radioVisualizer[0] antennaLobePlaneGlobal true
par TestGptpQoS2.visualizer.radioVisualizer[0] antennaLobePlane "\"view\""
attr enum view,xy,xz,yz
par TestGptpQoS2.visualizer.radioVisualizer[0] antennaLobeMode "\"logarithmic\""
attr enum logarithmic,linear
par TestGptpQoS2.visualizer.radioVisualizer[0] antennaLobeLogarithmicBase 10
par TestGptpQoS2.visualizer.radioVisualizer[0] antennaLobeLogarithmicScale 100
par TestGptpQoS2.visualizer.radioVisualizer[0] antennaLobeRadius 100
par TestGptpQoS2.visualizer.radioVisualizer[0] antennaLobeStep 10deg
attr unit deg
par TestGptpQoS2.visualizer.radioVisualizer[0] antennaLobeOpacity 0.25
par TestGptpQoS2.visualizer.radioVisualizer[0] antennaLobeLineSmooth true
par TestGptpQoS2.visualizer.radioVisualizer[0] antennaLobeLineColor "\"black\""
par TestGptpQoS2.visualizer.radioVisualizer[0] antennaLobeLineStyle "\"solid\""
par TestGptpQoS2.visualizer.radioVisualizer[0] antennaLobeLineWidth 1
par TestGptpQoS2.visualizer.radioVisualizer[0] antennaLobeFillColor "\"white\""
par TestGptpQoS2.visualizer.radioVisualizer[0] zIndex 10
par TestGptpQoS2.visualizer.physicalLinkVisualizer[0] typename "\"inet.visualizer.canvas.physicallayer.PhysicalLinkCanvasVisualizer\""
par TestGptpQoS2.visualizer.physicalLinkVisualizer[0] visualizationTargetModule "\"^.^\""
par TestGptpQoS2.visualizer.physicalLinkVisualizer[0] visualizationSubjectModule "\"^.^\""
par TestGptpQoS2.visualizer.physicalLinkVisualizer[0] tags "\"\""
par TestGptpQoS2.visualizer.physicalLinkVisualizer[0] displayLinks false
par TestGptpQoS2.visualizer.physicalLinkVisualizer[0] activityLevel "\"service\""
attr enum service,peer,protocol
par TestGptpQoS2.visualizer.physicalLinkVisualizer[0] nodeFilter "\"*\""
attr mutable ""
par TestGptpQoS2.visualizer.physicalLinkVisualizer[0] interfaceFilter "\"*\""
attr mutable ""
par TestGptpQoS2.visualizer.physicalLinkVisualizer[0] packetFilter "(omnetpp::cValueHolder)holder: \"*\""
attr mutable ""
par TestGptpQoS2.visualizer.physicalLinkVisualizer[0] lineColor "\"olive\""
par TestGptpQoS2.visualizer.physicalLinkVisualizer[0] lineStyle "\"dotted\""
par TestGptpQoS2.visualizer.physicalLinkVisualizer[0] lineWidth 3
par TestGptpQoS2.visualizer.physicalLinkVisualizer[0] lineShift 16
par TestGptpQoS2.visualizer.physicalLinkVisualizer[0] lineShiftMode "\"normal\""
par TestGptpQoS2.visualizer.physicalLinkVisualizer[0] lineContactSpacing 3
par TestGptpQoS2.visualizer.physicalLinkVisualizer[0] lineContactMode "\"rectangular\""
attr enum circular,rectangular
par TestGptpQoS2.visualizer.physicalLinkVisualizer[0] labelFormat "\"%n\""
par TestGptpQoS2.visualizer.physicalLinkVisualizer[0] labelFont "\"<default>, 8px\""
par TestGptpQoS2.visualizer.physicalLinkVisualizer[0] labelColor "\"olive\""
par TestGptpQoS2.visualizer.physicalLinkVisualizer[0] fadeOutMode "\"realTime\""
attr enum realTime,animationTime,simulationTime
par TestGptpQoS2.visualizer.physicalLinkVisualizer[0] fadeOutTime 1s
attr unit s
par TestGptpQoS2.visualizer.physicalLinkVisualizer[0] fadeOutAnimationSpeed 0
par TestGptpQoS2.visualizer.physicalLinkVisualizer[0] holdAnimationTime 0s
attr unit s
par TestGptpQoS2.visualizer.physicalLinkVisualizer[0] zIndex 1
par TestGptpQoS2.visualizer.interfaceTableVisualizer[0] typename "\"inet.visualizer.canvas.linklayer.InterfaceTableCanvasVisualizer\""
par TestGptpQoS2.visualizer.interfaceTableVisualizer[0] visualizationTargetModule "\"^.^\""
par TestGptpQoS2.visualizer.interfaceTableVisualizer[0] visualizationSubjectModule "\"^.^\""
par TestGptpQoS2.visualizer.interfaceTableVisualizer[0] tags "\"\""
par TestGptpQoS2.visualizer.interfaceTableVisualizer[0] networkNodeVisualizerModule "\"TestGptpQoS2.visualizer.networkNodeVisualizer[0]\""
par TestGptpQoS2.visualizer.interfaceTableVisualizer[0] displayInterfaceTables false
par TestGptpQoS2.visualizer.interfaceTableVisualizer[0] displayWiredInterfacesAtConnections true
par TestGptpQoS2.visualizer.interfaceTableVisualizer[0] displayBackground false
par TestGptpQoS2.visualizer.interfaceTableVisualizer[0] nodeFilter "\"*\""
attr mutable ""
par TestGptpQoS2.visualizer.interfaceTableVisualizer[0] interfaceFilter "\"not(lo*)\""
attr mutable ""
par TestGptpQoS2.visualizer.interfaceTableVisualizer[0] format "\"%N %\\\\%a%/%l\""
attr mutable ""
par TestGptpQoS2.visualizer.interfaceTableVisualizer[0] placementHint "\"top\""
par TestGptpQoS2.visualizer.interfaceTableVisualizer[0] placementPriority 0
par TestGptpQoS2.visualizer.interfaceTableVisualizer[0] font "\"<default>\""
par TestGptpQoS2.visualizer.interfaceTableVisualizer[0] textColor "\"#005030\""
par TestGptpQoS2.visualizer.interfaceTableVisualizer[0] backgroundColor "\"white\""
par TestGptpQoS2.visualizer.interfaceTableVisualizer[0] opacity 1
par TestGptpQoS2.visualizer.interfaceTableVisualizer[0] zIndex 10
par TestGptpQoS2.visualizer.dataLinkVisualizer[0] typename "\"inet.visualizer.canvas.linklayer.DataLinkCanvasVisualizer\""
par TestGptpQoS2.visualizer.dataLinkVisualizer[0] visualizationTargetModule "\"^.^\""
par TestGptpQoS2.visualizer.dataLinkVisualizer[0] visualizationSubjectModule "\"^.^\""
par TestGptpQoS2.visualizer.dataLinkVisualizer[0] tags "\"\""
par TestGptpQoS2.visualizer.dataLinkVisualizer[0] displayLinks true
par TestGptpQoS2.visualizer.dataLinkVisualizer[0] activityLevel "\"protocol\""
attr enum service,peer,protocol
par TestGptpQoS2.visualizer.dataLinkVisualizer[0] nodeFilter "\"*\""
attr mutable ""
par TestGptpQoS2.visualizer.dataLinkVisualizer[0] interfaceFilter "\"*\""
attr mutable ""
par TestGptpQoS2.visualizer.dataLinkVisualizer[0] packetFilter "(omnetpp::cValueHolder)holder: \"GptpSync\""
attr mutable ""
par TestGptpQoS2.visualizer.dataLinkVisualizer[0] lineColor "\"blue2\""
par TestGptpQoS2.visualizer.dataLinkVisualizer[0] lineStyle "\"solid\""
par TestGptpQoS2.visualizer.dataLinkVisualizer[0] lineWidth 3
par TestGptpQoS2.visualizer.dataLinkVisualizer[0] lineShift 16
par TestGptpQoS2.visualizer.dataLinkVisualizer[0] lineShiftMode "\"normal\""
par TestGptpQoS2.visualizer.dataLinkVisualizer[0] lineContactSpacing 3
par TestGptpQoS2.visualizer.dataLinkVisualizer[0] lineContactMode "\"rectangular\""
attr enum circular,rectangular
par TestGptpQoS2.visualizer.dataLinkVisualizer[0] labelFormat "\"%n\""
par TestGptpQoS2.visualizer.dataLinkVisualizer[0] labelFont "\"<default>, 8px\""
par TestGptpQoS2.visualizer.dataLinkVisualizer[0] labelColor "\"darkcyan\""
par TestGptpQoS2.visualizer.dataLinkVisualizer[0] fadeOutMode "\"realTime\""
attr enum realTime,animationTime,simulationTime
par TestGptpQoS2.visualizer.dataLinkVisualizer[0] fadeOutTime 1s
attr unit s
par TestGptpQoS2.visualizer.dataLinkVisualizer[0] fadeOutAnimationSpeed 0
par TestGptpQoS2.visualizer.dataLinkVisualizer[0] holdAnimationTime 0s
attr unit s
par TestGptpQoS2.visualizer.dataLinkVisualizer[0] zIndex 2
par TestGptpQoS2.visualizer.linkBreakVisualizer[0] typename "\"inet.visualizer.canvas.linklayer.LinkBreakCanvasVisualizer\""
par TestGptpQoS2.visualizer.linkBreakVisualizer[0] visualizationTargetModule "\"^.^\""
par TestGptpQoS2.visualizer.linkBreakVisualizer[0] visualizationSubjectModule "\"^.^\""
par TestGptpQoS2.visualizer.linkBreakVisualizer[0] tags "\"\""
par TestGptpQoS2.visualizer.linkBreakVisualizer[0] displayLinkBreaks false
par TestGptpQoS2.visualizer.linkBreakVisualizer[0] nodeFilter "\"*\""
attr mutable ""
par TestGptpQoS2.visualizer.linkBreakVisualizer[0] interfaceFilter "\"*\""
attr mutable ""
par TestGptpQoS2.visualizer.linkBreakVisualizer[0] packetFilter "(omnetpp::cValueHolder)holder: \"*\""
attr mutable ""
par TestGptpQoS2.visualizer.linkBreakVisualizer[0] icon "\"status/stop\""
par TestGptpQoS2.visualizer.linkBreakVisualizer[0] iconTintAmount 0
par TestGptpQoS2.visualizer.linkBreakVisualizer[0] iconTintColor "\"\""
par TestGptpQoS2.visualizer.linkBreakVisualizer[0] fadeOutMode "\"realTime\""
attr enum realTime,animationTime,simulationTime
par TestGptpQoS2.visualizer.linkBreakVisualizer[0] fadeOutTime 1s
attr unit s
par TestGptpQoS2.visualizer.linkBreakVisualizer[0] fadeOutAnimationSpeed 0
par TestGptpQoS2.visualizer.linkBreakVisualizer[0] zIndex 2
par TestGptpQoS2.visualizer.ieee80211Visualizer[0] typename "\"inet.visualizer.canvas.linklayer.Ieee80211CanvasVisualizer\""
par TestGptpQoS2.visualizer.ieee80211Visualizer[0] visualizationTargetModule "\"^.^\""
par TestGptpQoS2.visualizer.ieee80211Visualizer[0] visualizationSubjectModule "\"^.^\""
par TestGptpQoS2.visualizer.ieee80211Visualizer[0] tags "\"\""
par TestGptpQoS2.visualizer.ieee80211Visualizer[0] networkNodeVisualizerModule "\"TestGptpQoS2.visualizer.networkNodeVisualizer[0]\""
par TestGptpQoS2.visualizer.ieee80211Visualizer[0] displayAssociations false
par TestGptpQoS2.visualizer.ieee80211Visualizer[0] nodeFilter "\"*\""
attr mutable ""
par TestGptpQoS2.visualizer.ieee80211Visualizer[0] interfaceFilter "\"*\""
attr mutable ""
par TestGptpQoS2.visualizer.ieee80211Visualizer[0] minPower -85dBm
attr unit dBm
par TestGptpQoS2.visualizer.ieee80211Visualizer[0] maxPower -50dBm
attr unit dBm
par TestGptpQoS2.visualizer.ieee80211Visualizer[0] icons "\"misc/signal_power_0 misc/signal_power_1 misc/signal_power_2 misc/signal_power_3\""
par TestGptpQoS2.visualizer.ieee80211Visualizer[0] iconColor "\"dark\""
par TestGptpQoS2.visualizer.ieee80211Visualizer[0] labelFont "\"<default>\""
par TestGptpQoS2.visualizer.ieee80211Visualizer[0] labelColor "\"black\""
par TestGptpQoS2.visualizer.ieee80211Visualizer[0] placementHint "\"top\""
par TestGptpQoS2.visualizer.ieee80211Visualizer[0] placementPriority 0
par TestGptpQoS2.visualizer.ieee80211Visualizer[0] zIndex 2
par TestGptpQoS2.visualizer.networkRouteVisualizer[0] typename "\"inet.visualizer.canvas.networklayer.NetworkRouteCanvasVisualizer\""
par TestGptpQoS2.visualizer.networkRouteVisualizer[0] visualizationTargetModule "\"^.^\""
par TestGptpQoS2.visualizer.networkRouteVisualizer[0] visualizationSubjectModule "\"^.^\""
par TestGptpQoS2.visualizer.networkRouteVisualizer[0] tags "\"\""
par TestGptpQoS2.visualizer.networkRouteVisualizer[0] displayRoutes false
par TestGptpQoS2.visualizer.networkRouteVisualizer[0] startPathSignal "\"packetReceivedFromUpper\""
par TestGptpQoS2.visualizer.networkRouteVisualizer[0] extendPathSignal "\"packetReceivedFromLower\""
par TestGptpQoS2.visualizer.networkRouteVisualizer[0] endPathSignal "\"packetSentToUpper\""
par TestGptpQoS2.visualizer.networkRouteVisualizer[0] nodeFilter "\"*\""
attr mutable ""
par TestGptpQoS2.visualizer.networkRouteVisualizer[0] packetFilter "(omnetpp::cValueHolder)holder: \"*\""
attr mutable ""
par TestGptpQoS2.visualizer.networkRouteVisualizer[0] lineColor "\"dark\""
par TestGptpQoS2.visualizer.networkRouteVisualizer[0] lineStyle "\"solid\""
par TestGptpQoS2.visualizer.networkRouteVisualizer[0] lineWidth 3
par TestGptpQoS2.visualizer.networkRouteVisualizer[0] lineSmooth false
par TestGptpQoS2.visualizer.networkRouteVisualizer[0] lineShift 16
par TestGptpQoS2.visualizer.networkRouteVisualizer[0] lineShiftMode "\"normal\""
par TestGptpQoS2.visualizer.networkRouteVisualizer[0] lineContactSpacing 3
par TestGptpQoS2.visualizer.networkRouteVisualizer[0] lineContactMode "\"rectangular\""
attr enum circular,rectangular
par TestGptpQoS2.visualizer.networkRouteVisualizer[0] labelFormat "\"%n\""
par TestGptpQoS2.visualizer.networkRouteVisualizer[0] labelFont "\"<default>, 8px\""
par TestGptpQoS2.visualizer.networkRouteVisualizer[0] labelColor "\"\""
par TestGptpQoS2.visualizer.networkRouteVisualizer[0] fadeOutMode "\"realTime\""
attr enum realTime,animationTime,simulationTime
par TestGptpQoS2.visualizer.networkRouteVisualizer[0] fadeOutTime 1s
attr unit s
par TestGptpQoS2.visualizer.networkRouteVisualizer[0] fadeOutAnimationSpeed 0
par TestGptpQoS2.visualizer.networkRouteVisualizer[0] zIndex 3
par TestGptpQoS2.visualizer.routingTableVisualizer[0] typename "\"inet.visualizer.canvas.networklayer.RoutingTableCanvasVisualizer\""
par TestGptpQoS2.visualizer.routingTableVisualizer[0] visualizationTargetModule "\"^.^\""
par TestGptpQoS2.visualizer.routingTableVisualizer[0] visualizationSubjectModule "\"^.^\""
par TestGptpQoS2.visualizer.routingTableVisualizer[0] tags "\"\""
par TestGptpQoS2.visualizer.routingTableVisualizer[0] displayRoutingTables false
par TestGptpQoS2.visualizer.routingTableVisualizer[0] displayRoutesIndividually true
par TestGptpQoS2.visualizer.routingTableVisualizer[0] displayLabels true
par TestGptpQoS2.visualizer.routingTableVisualizer[0] destinationFilter "\"*\""
attr mutable ""
par TestGptpQoS2.visualizer.routingTableVisualizer[0] nodeFilter "\"*\""
attr mutable ""
par TestGptpQoS2.visualizer.routingTableVisualizer[0] lineColor "\"black\""
par TestGptpQoS2.visualizer.routingTableVisualizer[0] lineStyle "\"solid\""
par TestGptpQoS2.visualizer.routingTableVisualizer[0] lineWidth 2
par TestGptpQoS2.visualizer.routingTableVisualizer[0] lineShift 16
par TestGptpQoS2.visualizer.routingTableVisualizer[0] lineShiftMode "\"normal\""
par TestGptpQoS2.visualizer.routingTableVisualizer[0] lineContactSpacing 3
par TestGptpQoS2.visualizer.routingTableVisualizer[0] lineContactMode "\"rectangular\""
attr enum circular,rectangular
par TestGptpQoS2.visualizer.routingTableVisualizer[0] labelFormat "\"%d/%m -> %g (%n)\""
attr mutable ""
par TestGptpQoS2.visualizer.routingTableVisualizer[0] labelFont "\"<default>, 8px\""
par TestGptpQoS2.visualizer.routingTableVisualizer[0] labelColor "\"black\""
par TestGptpQoS2.visualizer.routingTableVisualizer[0] zIndex 0
par TestGptpQoS2.visualizer.transportRouteVisualizer[0] typename "\"inet.visualizer.canvas.transportlayer.TransportRouteCanvasVisualizer\""
par TestGptpQoS2.visualizer.transportRouteVisualizer[0] visualizationTargetModule "\"^.^\""
par TestGptpQoS2.visualizer.transportRouteVisualizer[0] visualizationSubjectModule "\"^.^\""
par TestGptpQoS2.visualizer.transportRouteVisualizer[0] tags "\"\""
par TestGptpQoS2.visualizer.transportRouteVisualizer[0] displayRoutes false
par TestGptpQoS2.visualizer.transportRouteVisualizer[0] startPathSignal "\"packetReceivedFromUpper\""
par TestGptpQoS2.visualizer.transportRouteVisualizer[0] extendPathSignal "\"packetReceivedFromLower\""
par TestGptpQoS2.visualizer.transportRouteVisualizer[0] endPathSignal "\"packetSentToUpper\""
par TestGptpQoS2.visualizer.transportRouteVisualizer[0] nodeFilter "\"*\""
attr mutable ""
par TestGptpQoS2.visualizer.transportRouteVisualizer[0] packetFilter "(omnetpp::cValueHolder)holder: \"*\""
attr mutable ""
par TestGptpQoS2.visualizer.transportRouteVisualizer[0] lineColor "\"dark\""
par TestGptpQoS2.visualizer.transportRouteVisualizer[0] lineStyle "\"solid\""
par TestGptpQoS2.visualizer.transportRouteVisualizer[0] lineWidth 3
par TestGptpQoS2.visualizer.transportRouteVisualizer[0] lineSmooth false
par TestGptpQoS2.visualizer.transportRouteVisualizer[0] lineShift 16
par TestGptpQoS2.visualizer.transportRouteVisualizer[0] lineShiftMode "\"normal\""
par TestGptpQoS2.visualizer.transportRouteVisualizer[0] lineContactSpacing 3
par TestGptpQoS2.visualizer.transportRouteVisualizer[0] lineContactMode "\"rectangular\""
attr enum circular,rectangular
par TestGptpQoS2.visualizer.transportRouteVisualizer[0] labelFormat "\"%n\""
par TestGptpQoS2.visualizer.transportRouteVisualizer[0] labelFont "\"<default>, 8px\""
par TestGptpQoS2.visualizer.transportRouteVisualizer[0] labelColor "\"\""
par TestGptpQoS2.visualizer.transportRouteVisualizer[0] fadeOutMode "\"realTime\""
attr enum realTime,animationTime,simulationTime
par TestGptpQoS2.visualizer.transportRouteVisualizer[0] fadeOutTime 1s
attr unit s
par TestGptpQoS2.visualizer.transportRouteVisualizer[0] fadeOutAnimationSpeed 0
par TestGptpQoS2.visualizer.transportRouteVisualizer[0] zIndex 4
par TestGptpQoS2.visualizer.transportConnectionVisualizer[0] typename "\"inet.visualizer.canvas.transportlayer.TransportConnectionCanvasVisualizer\""
par TestGptpQoS2.visualizer.transportConnectionVisualizer[0] visualizationTargetModule "\"^.^\""
par TestGptpQoS2.visualizer.transportConnectionVisualizer[0] visualizationSubjectModule "\"^.^\""
par TestGptpQoS2.visualizer.transportConnectionVisualizer[0] tags "\"\""
par TestGptpQoS2.visualizer.transportConnectionVisualizer[0] networkNodeVisualizerModule "\"TestGptpQoS2.visualizer.networkNodeVisualizer[0]\""
par TestGptpQoS2.visualizer.transportConnectionVisualizer[0] displayTransportConnections false
par TestGptpQoS2.visualizer.transportConnectionVisualizer[0] sourceNodeFilter "\"*\""
attr mutable ""
par TestGptpQoS2.visualizer.transportConnectionVisualizer[0] sourcePortFilter "\"*\""
attr mutable ""
par TestGptpQoS2.visualizer.transportConnectionVisualizer[0] destinationNodeFilter "\"*\""
attr mutable ""
par TestGptpQoS2.visualizer.transportConnectionVisualizer[0] destinationPortFilter "\"*\""
attr mutable ""
par TestGptpQoS2.visualizer.transportConnectionVisualizer[0] icon "\"misc/marker_s\""
par TestGptpQoS2.visualizer.transportConnectionVisualizer[0] iconColor "\"dark\""
par TestGptpQoS2.visualizer.transportConnectionVisualizer[0] labelFont "\"<default>\""
par TestGptpQoS2.visualizer.transportConnectionVisualizer[0] labelColor "\"black\""
par TestGptpQoS2.visualizer.transportConnectionVisualizer[0] placementHint "\"top\""
par TestGptpQoS2.visualizer.transportConnectionVisualizer[0] placementPriority 0
par TestGptpQoS2.visualizer.transportConnectionVisualizer[0] zIndex 4
par TestGptpQoS2.visualizer.failureProtectionConfigurationVisualizer[0] typename "\"inet.visualizer.canvas.configurator.FailureProtectionConfigurationCanvasVisualizer\""
par TestGptpQoS2.visualizer.failureProtectionConfigurationVisualizer[0] visualizationTargetModule "\"^.^\""
par TestGptpQoS2.visualizer.failureProtectionConfigurationVisualizer[0] visualizationSubjectModule "\"^.^\""
par TestGptpQoS2.visualizer.failureProtectionConfigurationVisualizer[0] tags "\"\""
par TestGptpQoS2.visualizer.failureProtectionConfigurationVisualizer[0] displayTrees false
par TestGptpQoS2.visualizer.failureProtectionConfigurationVisualizer[0] lineColor "\"dark\""
par TestGptpQoS2.visualizer.failureProtectionConfigurationVisualizer[0] lineStyle "\"solid\""
par TestGptpQoS2.visualizer.failureProtectionConfigurationVisualizer[0] lineWidth 3
par TestGptpQoS2.visualizer.failureProtectionConfigurationVisualizer[0] lineSmooth false
par TestGptpQoS2.visualizer.failureProtectionConfigurationVisualizer[0] lineShift 16
par TestGptpQoS2.visualizer.failureProtectionConfigurationVisualizer[0] lineShiftMode "\"normal\""
par TestGptpQoS2.visualizer.failureProtectionConfigurationVisualizer[0] lineContactSpacing 3
par TestGptpQoS2.visualizer.failureProtectionConfigurationVisualizer[0] lineContactMode "\"rectangular\""
attr enum circular,rectangular
par TestGptpQoS2.visualizer.failureProtectionConfigurationVisualizer[0] failureProtectionConfiguratorModule "\"failureProtectionConfigurator\""
par TestGptpQoS2.visualizer.failureProtectionConfigurationVisualizer[0] streamFilter "\"*\""
par TestGptpQoS2.visualizer.failureProtectionConfigurationVisualizer[0] zIndex 3
par TestGptpQoS2.visualizer.streamRedundancyConfigurationVisualizer[0] typename "\"inet.visualizer.canvas.configurator.StreamRedundancyConfigurationCanvasVisualizer\""
par TestGptpQoS2.visualizer.streamRedundancyConfigurationVisualizer[0] visualizationTargetModule "\"^.^\""
par TestGptpQoS2.visualizer.streamRedundancyConfigurationVisualizer[0] visualizationSubjectModule "\"^.^\""
par TestGptpQoS2.visualizer.streamRedundancyConfigurationVisualizer[0] tags "\"\""
par TestGptpQoS2.visualizer.streamRedundancyConfigurationVisualizer[0] displayTrees false
par TestGptpQoS2.visualizer.streamRedundancyConfigurationVisualizer[0] lineColor "\"dark\""
par TestGptpQoS2.visualizer.streamRedundancyConfigurationVisualizer[0] lineStyle "\"solid\""
par TestGptpQoS2.visualizer.streamRedundancyConfigurationVisualizer[0] lineWidth 3
par TestGptpQoS2.visualizer.streamRedundancyConfigurationVisualizer[0] lineSmooth false
par TestGptpQoS2.visualizer.streamRedundancyConfigurationVisualizer[0] lineShift 16
par TestGptpQoS2.visualizer.streamRedundancyConfigurationVisualizer[0] lineShiftMode "\"normal\""
par TestGptpQoS2.visualizer.streamRedundancyConfigurationVisualizer[0] lineContactSpacing 3
par TestGptpQoS2.visualizer.streamRedundancyConfigurationVisualizer[0] lineContactMode "\"rectangular\""
attr enum circular,rectangular
par TestGptpQoS2.visualizer.streamRedundancyConfigurationVisualizer[0] streamRedundancyConfiguratorModule "\"streamRedundancyConfigurator\""
par TestGptpQoS2.visualizer.streamRedundancyConfigurationVisualizer[0] streamFilter "\"*\""
par TestGptpQoS2.visualizer.streamRedundancyConfigurationVisualizer[0] zIndex 3
par TestGptpQoS2.visualizer typename "\"inet.visualizer.canvas.integrated.IntegratedMultiCanvasVisualizer\""
par TestGptpQoS2.visualizer numSceneVisualizers 1
par TestGptpQoS2.visualizer numPhysicalEnvironmentVisualizers 1
par TestGptpQoS2.visualizer numNetworkNodeVisualizers 1
par TestGptpQoS2.visualizer numNetworkConnectionVisualizers 1
par TestGptpQoS2.visualizer numMobilityVisualizers 1
par TestGptpQoS2.visualizer numStatisticVisualizers 1
par TestGptpQoS2.visualizer numInfoVisualizers 3
par TestGptpQoS2.visualizer numEnergyStorageVisualizers 1
par TestGptpQoS2.visualizer numMediumVisualizers 1
par TestGptpQoS2.visualizer numObstacleLossVisualizers 1
par TestGptpQoS2.visualizer numPacketDropVisualizers 1
par TestGptpQoS2.visualizer numQueueVisualizers 1
par TestGptpQoS2.visualizer numGateScheduleVisualizers 1
par TestGptpQoS2.visualizer numRadioVisualizers 1
par TestGptpQoS2.visualizer numPhysicalLinkVisualizers 1
par TestGptpQoS2.visualizer numInterfaceTableVisualizers 1
par TestGptpQoS2.visualizer numDataLinkVisualizers 1
par TestGptpQoS2.visualizer numLinkBreakVisualizers 1
par TestGptpQoS2.visualizer numIeee80211Visualizers 1
par TestGptpQoS2.visualizer numNetworkRouteVisualizers 1
par TestGptpQoS2.visualizer numRoutingTableVisualizers 1
par TestGptpQoS2.visualizer numTransportRouteVisualizers 1
par TestGptpQoS2.visualizer numTransportConnectionVisualizers 1
par TestGptpQoS2.visualizer numFailureProtectionConfigurationVisualizers 1
par TestGptpQoS2.visualizer numStreamRedundancyConfigurationVisualizers 1
par TestGptpQoS2.configurator typename "\"inet.networklayer.configurator.ipv4.Ipv4NetworkConfigurator\""
par TestGptpQoS2.configurator minLinkWeight 0.001
par TestGptpQoS2.configurator configureIsolatedNetworksSeparatly false
par TestGptpQoS2.configurator config "<config>...</config> at content:1"
par TestGptpQoS2.configurator assignAddresses true
par TestGptpQoS2.configurator assignUniqueAddresses true
par TestGptpQoS2.configurator assignDisjunctSubnetAddresses true
par TestGptpQoS2.configurator addStaticRoutes true
par TestGptpQoS2.configurator addDefaultRoutes true
par TestGptpQoS2.configurator addSubnetRoutes true
par TestGptpQoS2.configurator addDirectRoutes true
par TestGptpQoS2.configurator optimizeRoutes true
par TestGptpQoS2.configurator dumpTopology false
par TestGptpQoS2.configurator dumpLinks false
par TestGptpQoS2.configurator dumpAddresses false
par TestGptpQoS2.configurator dumpRoutes false
par TestGptpQoS2.configurator dumpConfig "\"\""
par TestGptpQoS2.macForwardingTableConfigurator typename "\"inet.linklayer.configurator.MacForwardingTableConfigurator\""
par TestGptpQoS2.histogramContainer typename "\"src.distribution.histogram.HistogramContainer\""
par TestGptpQoS2.histogramContainer histograms "{D2D: \"../../../deterministic6g_data/PD-Wireless-5G-1/testeD2D.xml\", Downlink: \"../../../deterministic6g_data/PD-Wireless-5G-1/s10-DL_wall.xml\", Uplink: \"../../../deterministic6g_data/PD-Wireless-5G-1/s1-UL_wall.xml\"}"
par TestGptpQoS2.switch5GC.ethg$i[0].channel typename "\"ned.IdealChannel\""
par TestGptpQoS2.switch5GC.eth[0].phys$o.channel typename "\"ned.IdealChannel\""
par TestGptpQoS2.switch5GC.clock.oscillator typename "\"inet.clock.oscillator.ConstantDriftOscillator\""
par TestGptpQoS2.switch5GC.clock.oscillator displayStringTextFormat "\"%c (%n + %d)\""
par TestGptpQoS2.switch5GC.clock.oscillator nominalTickLength 0s
attr unit s
par TestGptpQoS2.switch5GC.clock.oscillator tickOffset 0s
attr unit s
par TestGptpQoS2.switch5GC.clock.oscillator driftRate 0ppm
attr unit ppm
par TestGptpQoS2.switch5GC.clock typename "\"inet.clock.model.SettableClock\""
par TestGptpQoS2.switch5GC.clock displayStringTextFormat "\"time: %T\""
par TestGptpQoS2.switch5GC.clock referenceClock "\"switch5GC.clock\""
par TestGptpQoS2.switch5GC.clock emitClockTimeInterval 0s
attr unit s
par TestGptpQoS2.switch5GC.clock initialClockTime 0s
attr unit s
par TestGptpQoS2.switch5GC.clock roundingMode "\"up\""
attr enum down,up,closer,none
par TestGptpQoS2.switch5GC.clock defaultOverdueClockEventHandlingMode "\"execute\""
attr enum execute,skip,error
par TestGptpQoS2.switch5GC.interfaceTable typename "\"inet.networklayer.common.InterfaceTable\""
par TestGptpQoS2.switch5GC.interfaceTable displayAddresses false
par TestGptpQoS2.switch5GC.cb typename "\"inet.common.MessageDispatcher\""
par TestGptpQoS2.switch5GC.cb displayStringTextFormat "\"processed %p pk (%l)\""
par TestGptpQoS2.switch5GC.cb forwardServiceRegistration true
par TestGptpQoS2.switch5GC.cb forwardProtocolRegistration true
par TestGptpQoS2.switch5GC.bl typename "\"inet.common.MessageDispatcher\""
par TestGptpQoS2.switch5GC.bl displayStringTextFormat "\"processed %p pk (%l)\""
par TestGptpQoS2.switch5GC.bl forwardServiceRegistration true
par TestGptpQoS2.switch5GC.bl forwardProtocolRegistration true
par TestGptpQoS2.switch5GC.ethernet.fcsInserter.out.channel typename "\"ned.IdealChannel\""
par TestGptpQoS2.switch5GC.ethernet.lowerLayerIn.channel typename "\"ned.IdealChannel\""
par TestGptpQoS2.switch5GC.ethernet.upperLayerIn.channel typename "\"ned.IdealChannel\""
par TestGptpQoS2.switch5GC.ethernet.macHeaderChecker.out.channel typename "\"ned.IdealChannel\""
par TestGptpQoS2.switch5GC.ethernet.macHeaderInserter typename "\"inet.linklayer.ethernet.modular.EthernetMacHeaderInserter\""
par TestGptpQoS2.switch5GC.ethernet.macHeaderInserter displayStringTextFormat "\"processed %p pk (%l)\""
par TestGptpQoS2.switch5GC.ethernet.macHeaderInserter interfaceTableModule "\"TestGptpQoS2.switch5GC.interfaceTable\""
scalar TestGptpQoS2.switch5GC.ethernet.macHeaderInserter outgoingPackets:count 4
attr recordingmode count
attr source "merge(packetPushedOut, packetPulledOut)"
attr title "outgoing packets, count"
attr unit pk
scalar TestGptpQoS2.switch5GC.ethernet.macHeaderInserter outgoingPacketLengths:sum 2272
attr interpolationmode none
attr recordingmode sum
attr source "packetLength(merge(packetPushedOut, packetPulledOut))"
attr title "outgoing packet lengths, sum"
attr unit b
statistic TestGptpQoS2.switch5GC.ethernet.macHeaderInserter outgoingPacketLengths:histogram
field count 4
field mean 568
field stddev 108.1233863078
field min 464
field max 720
field sum 2272
field sqrsum 1325568
attr interpolationmode none
attr recordingmode histogram
attr source "packetLength(merge(packetPushedOut, packetPulledOut))"
attr title "outgoing packet lengths"
attr unit b
bin	-inf	0
bin	400	0
bin	405	0
bin	410	0
bin	415	0
bin	420	0
bin	425	0
bin	430	0
bin	435	0
bin	440	0
bin	445	0
bin	450	0
bin	455	0
bin	460	1
bin	465	0
bin	470	0
bin	475	0
bin	480	0
bin	485	0
bin	490	0
bin	495	0
bin	500	0
bin	505	0
bin	510	0
bin	515	0
bin	520	0
bin	525	0
bin	530	0
bin	535	0
bin	540	2
bin	545	0
bin	550	0
bin	555	0
bin	560	0
bin	565	0
bin	570	0
bin	575	0
bin	580	0
bin	585	0
bin	590	0
bin	595	0
bin	600	0
bin	605	0
bin	610	0
bin	615	0
bin	620	0
bin	625	0
bin	630	0
bin	635	0
bin	640	0
bin	645	0
bin	650	0
bin	655	0
bin	660	0
bin	665	0
bin	670	0
bin	675	0
bin	680	0
bin	685	0
bin	690	0
bin	695	0
bin	700	0
bin	705	0
bin	710	0
bin	715	0
bin	720	1
bin	725	0
bin	730	0
bin	735	0
bin	740	0
bin	745	0
bin	750	0
bin	755	0
bin	760	0
bin	765	0
bin	770	0
bin	775	0
bin	780	0
bin	785	0
scalar TestGptpQoS2.switch5GC.ethernet.macHeaderInserter flowOutgoingPacketLengths:sum 0
attr interpolationmode none
attr recordingmode sum
attr source "packetLength(demuxFlow(merge(packetPushedOut, packetPulledOut)))"
attr title "flow specific outgoing packet lengths, sum"
attr unit b
statistic TestGptpQoS2.switch5GC.ethernet.macHeaderInserter flowOutgoingPacketLengths:histogram
field count 0
field mean -nan
field stddev nan
field min nan
field max nan
field sum 0
field sqrsum 0
attr interpolationmode none
attr recordingmode histogram
attr source "packetLength(demuxFlow(merge(packetPushedOut, packetPulledOut)))"
attr title "flow specific outgoing packet lengths"
attr unit b
bin	-inf	0
bin	0	0
bin	1	0
scalar TestGptpQoS2.switch5GC.ethernet.macHeaderInserter incomingPackets:count 4
attr recordingmode count
attr source "merge(packetPushedIn, packetPulledIn)"
attr title "incoming packets, count"
attr unit pk
scalar TestGptpQoS2.switch5GC.ethernet.macHeaderInserter incomingPacketLengths:sum 1824
attr interpolationmode none
attr recordingmode sum
attr source "packetLength(merge(packetPushedIn, packetPulledIn))"
attr title "incoming packet lengths, sum"
attr unit b
statistic TestGptpQoS2.switch5GC.ethernet.macHeaderInserter incomingPacketLengths:histogram
field count 4
field mean 456
field stddev 108.1233863078
field min 352
field max 608
field sum 1824
field sqrsum 866816
attr interpolationmode none
attr recordingmode histogram
attr source "packetLength(merge(packetPushedIn, packetPulledIn))"
attr title "incoming packet lengths"
attr unit b
bin	-inf	0
bin	285	0
bin	290	0
bin	295	0
bin	300	0
bin	305	0
bin	310	0
bin	315	0
bin	320	0
bin	325	0
bin	330	0
bin	335	0
bin	340	0
bin	345	0
bin	350	1
bin	355	0
bin	360	0
bin	365	0
bin	370	0
bin	375	0
bin	380	0
bin	385	0
bin	390	0
bin	395	0
bin	400	0
bin	405	0
bin	410	0
bin	415	0
bin	420	0
bin	425	0
bin	430	2
bin	435	0
bin	440	0
bin	445	0
bin	450	0
bin	455	0
bin	460	0
bin	465	0
bin	470	0
bin	475	0
bin	480	0
bin	485	0
bin	490	0
bin	495	0
bin	500	0
bin	505	0
bin	510	0
bin	515	0
bin	520	0
bin	525	0
bin	530	0
bin	535	0
bin	540	0
bin	545	0
bin	550	0
bin	555	0
bin	560	0
bin	565	0
bin	570	0
bin	575	0
bin	580	0
bin	585	0
bin	590	0
bin	595	0
bin	600	0
bin	605	1
bin	610	0
bin	615	0
bin	620	0
bin	625	0
bin	630	0
bin	635	0
bin	640	0
bin	645	0
bin	650	0
bin	655	0
bin	660	0
bin	665	0
bin	670	0
bin	675	0
scalar TestGptpQoS2.switch5GC.ethernet.macHeaderInserter flowIncomingPacketLengths:sum 0
attr interpolationmode none
attr recordingmode sum
attr source "packetLength(demuxFlow(merge(packetPushedIn, packetPulledIn)))"
attr title "flow specific incoming packet lengths, sum"
attr unit b
statistic TestGptpQoS2.switch5GC.ethernet.macHeaderInserter flowIncomingPacketLengths:histogram
field count 0
field mean -nan
field stddev nan
field min nan
field max nan
field sum 0
field sqrsum 0
attr interpolationmode none
attr recordingmode histogram
attr source "packetLength(demuxFlow(merge(packetPushedIn, packetPulledIn)))"
attr title "flow specific incoming packet lengths"
attr unit b
bin	-inf	0
bin	0	0
bin	1	0
par TestGptpQoS2.switch5GC.ethernet.paddingInserter typename "\"inet.protocolelement.common.PaddingInserter\""
par TestGptpQoS2.switch5GC.ethernet.paddingInserter displayStringTextFormat "\"processed %p pk (%l)\""
par TestGptpQoS2.switch5GC.ethernet.paddingInserter minLength 480b
attr unit b
par TestGptpQoS2.switch5GC.ethernet.paddingInserter roundingLength 8b
attr unit b
par TestGptpQoS2.switch5GC.ethernet.paddingInserter insertionPosition "\"back\""
attr enum front,back
scalar TestGptpQoS2.switch5GC.ethernet.paddingInserter outgoingPackets:count 4
attr recordingmode count
attr source "merge(packetPushedOut, packetPulledOut)"
attr title "outgoing packets, count"
attr unit pk
scalar TestGptpQoS2.switch5GC.ethernet.paddingInserter outgoingPacketLengths:sum 2288
attr interpolationmode none
attr recordingmode sum
attr source "packetLength(merge(packetPushedOut, packetPulledOut))"
attr title "outgoing packet lengths, sum"
attr unit b
statistic TestGptpQoS2.switch5GC.ethernet.paddingInserter outgoingPacketLengths:histogram
field count 4
field mean 572
field stddev 103.17622465148
field min 480
field max 720
field sum 2288
field sqrsum 1340672
attr interpolationmode none
attr recordingmode histogram
attr source "packetLength(merge(packetPushedOut, packetPulledOut))"
attr title "outgoing packet lengths"
attr unit b
bin	-inf	0
bin	420	0
bin	425	0
bin	430	0
bin	435	0
bin	440	0
bin	445	0
bin	450	0
bin	455	0
bin	460	0
bin	465	0
bin	470	0
bin	475	0
bin	480	1
bin	485	0
bin	490	0
bin	495	0
bin	500	0
bin	505	0
bin	510	0
bin	515	0
bin	520	0
bin	525	0
bin	530	0
bin	535	0
bin	540	2
bin	545	0
bin	550	0
bin	555	0
bin	560	0
bin	565	0
bin	570	0
bin	575	0
bin	580	0
bin	585	0
bin	590	0
bin	595	0
bin	600	0
bin	605	0
bin	610	0
bin	615	0
bin	620	0
bin	625	0
bin	630	0
bin	635	0
bin	640	0
bin	645	0
bin	650	0
bin	655	0
bin	660	0
bin	665	0
bin	670	0
bin	675	0
bin	680	0
bin	685	0
bin	690	0
bin	695	0
bin	700	0
bin	705	0
bin	710	0
bin	715	0
bin	720	1
bin	725	0
bin	730	0
bin	735	0
bin	740	0
bin	745	0
bin	750	0
bin	755	0
bin	760	0
bin	765	0
bin	770	0
bin	775	0
bin	780	0
scalar TestGptpQoS2.switch5GC.ethernet.paddingInserter flowOutgoingPacketLengths:sum 0
attr interpolationmode none
attr recordingmode sum
attr source "packetLength(demuxFlow(merge(packetPushedOut, packetPulledOut)))"
attr title "flow specific outgoing packet lengths, sum"
attr unit b
statistic TestGptpQoS2.switch5GC.ethernet.paddingInserter flowOutgoingPacketLengths:histogram
field count 0
field mean -nan
field stddev nan
field min nan
field max nan
field sum 0
field sqrsum 0
attr interpolationmode none
attr recordingmode histogram
attr source "packetLength(demuxFlow(merge(packetPushedOut, packetPulledOut)))"
attr title "flow specific outgoing packet lengths"
attr unit b
bin	-inf	0
bin	0	0
bin	1	0
scalar TestGptpQoS2.switch5GC.ethernet.paddingInserter incomingPackets:count 4
attr recordingmode count
attr source "merge(packetPushedIn, packetPulledIn)"
attr title "incoming packets, count"
attr unit pk
scalar TestGptpQoS2.switch5GC.ethernet.paddingInserter incomingPacketLengths:sum 2272
attr interpolationmode none
attr recordingmode sum
attr source "packetLength(merge(packetPushedIn, packetPulledIn))"
attr title "incoming packet lengths, sum"
attr unit b
statistic TestGptpQoS2.switch5GC.ethernet.paddingInserter incomingPacketLengths:histogram
field count 4
field mean 568
field stddev 108.1233863078
field min 464
field max 720
field sum 2272
field sqrsum 1325568
attr interpolationmode none
attr recordingmode histogram
attr source "packetLength(merge(packetPushedIn, packetPulledIn))"
attr title "incoming packet lengths"
attr unit b
bin	-inf	0
bin	400	0
bin	405	0
bin	410	0
bin	415	0
bin	420	0
bin	425	0
bin	430	0
bin	435	0
bin	440	0
bin	445	0
bin	450	0
bin	455	0
bin	460	1
bin	465	0
bin	470	0
bin	475	0
bin	480	0
bin	485	0
bin	490	0
bin	495	0
bin	500	0
bin	505	0
bin	510	0
bin	515	0
bin	520	0
bin	525	0
bin	530	0
bin	535	0
bin	540	2
bin	545	0
bin	550	0
bin	555	0
bin	560	0
bin	565	0
bin	570	0
bin	575	0
bin	580	0
bin	585	0
bin	590	0
bin	595	0
bin	600	0
bin	605	0
bin	610	0
bin	615	0
bin	620	0
bin	625	0
bin	630	0
bin	635	0
bin	640	0
bin	645	0
bin	650	0
bin	655	0
bin	660	0
bin	665	0
bin	670	0
bin	675	0
bin	680	0
bin	685	0
bin	690	0
bin	695	0
bin	700	0
bin	705	0
bin	710	0
bin	715	0
bin	720	1
bin	725	0
bin	730	0
bin	735	0
bin	740	0
bin	745	0
bin	750	0
bin	755	0
bin	760	0
bin	765	0
bin	770	0
bin	775	0
bin	780	0
bin	785	0
scalar TestGptpQoS2.switch5GC.ethernet.paddingInserter flowIncomingPacketLengths:sum 0
attr interpolationmode none
attr recordingmode sum
attr source "packetLength(demuxFlow(merge(packetPushedIn, packetPulledIn)))"
attr title "flow specific incoming packet lengths, sum"
attr unit b
statistic TestGptpQoS2.switch5GC.ethernet.paddingInserter flowIncomingPacketLengths:histogram
field count 0
field mean -nan
field stddev nan
field min nan
field max nan
field sum 0
field sqrsum 0
attr interpolationmode none
attr recordingmode histogram
attr source "packetLength(demuxFlow(merge(packetPushedIn, packetPulledIn)))"
attr title "flow specific incoming packet lengths"
attr unit b
bin	-inf	0
bin	0	0
bin	1	0
par TestGptpQoS2.switch5GC.ethernet.fcsInserter typename "\"inet.linklayer.ethernet.modular.EthernetFcsInserter\""
par TestGptpQoS2.switch5GC.ethernet.fcsInserter displayStringTextFormat "\"processed %p pk (%l)\""
par TestGptpQoS2.switch5GC.ethernet.fcsInserter fcsMode "\"declared\""
attr enum disabled,declared,computed
scalar TestGptpQoS2.switch5GC.ethernet.fcsInserter outgoingPackets:count 4
attr recordingmode count
attr source "merge(packetPushedOut, packetPulledOut)"
attr title "outgoing packets, count"
attr unit pk
scalar TestGptpQoS2.switch5GC.ethernet.fcsInserter outgoingPacketLengths:sum 2416
attr interpolationmode none
attr recordingmode sum
attr source "packetLength(merge(packetPushedOut, packetPulledOut))"
attr title "outgoing packet lengths, sum"
attr unit b
statistic TestGptpQoS2.switch5GC.ethernet.fcsInserter outgoingPacketLengths:histogram
field count 4
field mean 604
field stddev 103.17622465148
field min 512
field max 752
field sum 2416
field sqrsum 1491200
attr interpolationmode none
attr recordingmode histogram
attr source "packetLength(merge(packetPushedOut, packetPulledOut))"
attr title "outgoing packet lengths"
attr unit b
bin	-inf	0
bin	450	0
bin	455	0
bin	460	0
bin	465	0
bin	470	0
bin	475	0
bin	480	0
bin	485	0
bin	490	0
bin	495	0
bin	500	0
bin	505	0
bin	510	1
bin	515	0
bin	520	0
bin	525	0
bin	530	0
bin	535	0
bin	540	0
bin	545	0
bin	550	0
bin	555	0
bin	560	0
bin	565	0
bin	570	0
bin	575	2
bin	580	0
bin	585	0
bin	590	0
bin	595	0
bin	600	0
bin	605	0
bin	610	0
bin	615	0
bin	620	0
bin	625	0
bin	630	0
bin	635	0
bin	640	0
bin	645	0
bin	650	0
bin	655	0
bin	660	0
bin	665	0
bin	670	0
bin	675	0
bin	680	0
bin	685	0
bin	690	0
bin	695	0
bin	700	0
bin	705	0
bin	710	0
bin	715	0
bin	720	0
bin	725	0
bin	730	0
bin	735	0
bin	740	0
bin	745	0
bin	750	1
bin	755	0
bin	760	0
bin	765	0
bin	770	0
bin	775	0
bin	780	0
bin	785	0
bin	790	0
bin	795	0
bin	800	0
bin	805	0
bin	810	0
bin	815	0
scalar TestGptpQoS2.switch5GC.ethernet.fcsInserter flowOutgoingPacketLengths:sum 0
attr interpolationmode none
attr recordingmode sum
attr source "packetLength(demuxFlow(merge(packetPushedOut, packetPulledOut)))"
attr title "flow specific outgoing packet lengths, sum"
attr unit b
statistic TestGptpQoS2.switch5GC.ethernet.fcsInserter flowOutgoingPacketLengths:histogram
field count 0
field mean -nan
field stddev nan
field min nan
field max nan
field sum 0
field sqrsum 0
attr interpolationmode none
attr recordingmode histogram
attr source "packetLength(demuxFlow(merge(packetPushedOut, packetPulledOut)))"
attr title "flow specific outgoing packet lengths"
attr unit b
bin	-inf	0
bin	0	0
bin	1	0
scalar TestGptpQoS2.switch5GC.ethernet.fcsInserter incomingPackets:count 4
attr recordingmode count
attr source "merge(packetPushedIn, packetPulledIn)"
attr title "incoming packets, count"
attr unit pk
scalar TestGptpQoS2.switch5GC.ethernet.fcsInserter incomingPacketLengths:sum 2288
attr interpolationmode none
attr recordingmode sum
attr source "packetLength(merge(packetPushedIn, packetPulledIn))"
attr title "incoming packet lengths, sum"
attr unit b
statistic TestGptpQoS2.switch5GC.ethernet.fcsInserter incomingPacketLengths:histogram
field count 4
field mean 572
field stddev 103.17622465148
field min 480
field max 720
field sum 2288
field sqrsum 1340672
attr interpolationmode none
attr recordingmode histogram
attr source "packetLength(merge(packetPushedIn, packetPulledIn))"
attr title "incoming packet lengths"
attr unit b
bin	-inf	0
bin	420	0
bin	425	0
bin	430	0
bin	435	0
bin	440	0
bin	445	0
bin	450	0
bin	455	0
bin	460	0
bin	465	0
bin	470	0
bin	475	0
bin	480	1
bin	485	0
bin	490	0
bin	495	0
bin	500	0
bin	505	0
bin	510	0
bin	515	0
bin	520	0
bin	525	0
bin	530	0
bin	535	0
bin	540	2
bin	545	0
bin	550	0
bin	555	0
bin	560	0
bin	565	0
bin	570	0
bin	575	0
bin	580	0
bin	585	0
bin	590	0
bin	595	0
bin	600	0
bin	605	0
bin	610	0
bin	615	0
bin	620	0
bin	625	0
bin	630	0
bin	635	0
bin	640	0
bin	645	0
bin	650	0
bin	655	0
bin	660	0
bin	665	0
bin	670	0
bin	675	0
bin	680	0
bin	685	0
bin	690	0
bin	695	0
bin	700	0
bin	705	0
bin	710	0
bin	715	0
bin	720	1
bin	725	0
bin	730	0
bin	735	0
bin	740	0
bin	745	0
bin	750	0
bin	755	0
bin	760	0
bin	765	0
bin	770	0
bin	775	0
bin	780	0
scalar TestGptpQoS2.switch5GC.ethernet.fcsInserter flowIncomingPacketLengths:sum 0
attr interpolationmode none
attr recordingmode sum
attr source "packetLength(demuxFlow(merge(packetPushedIn, packetPulledIn)))"
attr title "flow specific incoming packet lengths, sum"
attr unit b
statistic TestGptpQoS2.switch5GC.ethernet.fcsInserter flowIncomingPacketLengths:histogram
field count 0
field mean -nan
field stddev nan
field min nan
field max nan
field sum 0
field sqrsum 0
attr interpolationmode none
attr recordingmode histogram
attr source "packetLength(demuxFlow(merge(packetPushedIn, packetPulledIn)))"
attr title "flow specific incoming packet lengths"
attr unit b
bin	-inf	0
bin	0	0
bin	1	0
par TestGptpQoS2.switch5GC.ethernet.macHeaderChecker typename "\"inet.linklayer.ethernet.modular.EthernetMacHeaderChecker\""
par TestGptpQoS2.switch5GC.ethernet.macHeaderChecker displayStringTextFormat "\"dropped %d/%p pk (%k/%l)\""
par TestGptpQoS2.switch5GC.ethernet.macHeaderChecker backpressure false
par TestGptpQoS2.switch5GC.ethernet.macHeaderChecker interfaceTableModule "\"TestGptpQoS2.switch5GC.interfaceTable\""
par TestGptpQoS2.switch5GC.ethernet.macHeaderChecker promiscuous false
scalar TestGptpQoS2.switch5GC.ethernet.macHeaderChecker outgoingPackets:count 1
attr recordingmode count
attr source "merge(packetPushedOut, packetPulledOut)"
attr title "outgoing packets, count"
attr unit pk
scalar TestGptpQoS2.switch5GC.ethernet.macHeaderChecker outgoingPacketLengths:sum 432
attr interpolationmode none
attr recordingmode sum
attr source "packetLength(merge(packetPushedOut, packetPulledOut))"
attr title "outgoing packet lengths, sum"
attr unit b
statistic TestGptpQoS2.switch5GC.ethernet.macHeaderChecker outgoingPacketLengths:histogram
field count 1
field mean 432
field stddev nan
field min 432
field max 432
field sum 432
field sqrsum 186624
attr interpolationmode none
attr recordingmode histogram
attr source "packetLength(merge(packetPushedOut, packetPulledOut))"
attr title "outgoing packet lengths"
attr unit b
bin	-inf	0
bin	431	0
bin	432	1
bin	433	0
scalar TestGptpQoS2.switch5GC.ethernet.macHeaderChecker flowOutgoingPacketLengths:sum 0
attr interpolationmode none
attr recordingmode sum
attr source "packetLength(demuxFlow(merge(packetPushedOut, packetPulledOut)))"
attr title "flow specific outgoing packet lengths, sum"
attr unit b
statistic TestGptpQoS2.switch5GC.ethernet.macHeaderChecker flowOutgoingPacketLengths:histogram
field count 0
field mean -nan
field stddev nan
field min nan
field max nan
field sum 0
field sqrsum 0
attr interpolationmode none
attr recordingmode histogram
attr source "packetLength(demuxFlow(merge(packetPushedOut, packetPulledOut)))"
attr title "flow specific outgoing packet lengths"
attr unit b
bin	-inf	0
bin	0	0
bin	1	0
scalar TestGptpQoS2.switch5GC.ethernet.macHeaderChecker incomingPackets:count 1
attr recordingmode count
attr source "merge(packetPushedIn, packetPulledIn)"
attr title "incoming packets, count"
attr unit pk
scalar TestGptpQoS2.switch5GC.ethernet.macHeaderChecker incomingPacketLengths:sum 544
attr interpolationmode none
attr recordingmode sum
attr source "packetLength(merge(packetPushedIn, packetPulledIn))"
attr title "incoming packet lengths, sum"
attr unit b
statistic TestGptpQoS2.switch5GC.ethernet.macHeaderChecker incomingPacketLengths:histogram
field count 1
field mean 544
field stddev nan
field min 544
field max 544
field sum 544
field sqrsum 295936
attr interpolationmode none
attr recordingmode histogram
attr source "packetLength(merge(packetPushedIn, packetPulledIn))"
attr title "incoming packet lengths"
attr unit b
bin	-inf	0
bin	543	0
bin	544	1
bin	545	0
scalar TestGptpQoS2.switch5GC.ethernet.macHeaderChecker flowIncomingPacketLengths:sum 0
attr interpolationmode none
attr recordingmode sum
attr source "packetLength(demuxFlow(merge(packetPushedIn, packetPulledIn)))"
attr title "flow specific incoming packet lengths, sum"
attr unit b
statistic TestGptpQoS2.switch5GC.ethernet.macHeaderChecker flowIncomingPacketLengths:histogram
field count 0
field mean -nan
field stddev nan
field min nan
field max nan
field sum 0
field sqrsum 0
attr interpolationmode none
attr recordingmode histogram
attr source "packetLength(demuxFlow(merge(packetPushedIn, packetPulledIn)))"
attr title "flow specific incoming packet lengths"
attr unit b
bin	-inf	0
bin	0	0
bin	1	0
scalar TestGptpQoS2.switch5GC.ethernet.macHeaderChecker droppedPackets:count 0
attr recordingmode count
attr source packetDropped
attr title "dropped packets, count"
attr unit pk
scalar TestGptpQoS2.switch5GC.ethernet.macHeaderChecker droppedPacketLengths:sum 0
attr interpolationmode none
attr recordingmode sum
attr source packetLength(packetDropped)
attr title "dropped packet lengths, sum"
attr unit b
[...]
attr recordingmode count
attr source "merge(packetPushedIn, packetPulledIn)"
attr title "incoming packets, count"
attr unit pk
scalar TestGptpQoS2.FGS.nwtt[0].tt[1].phyLayer.outboundEmitter incomingPacketLengths:sum 1392
attr interpolationmode none
attr recordingmode sum
attr source "packetLength(merge(packetPushedIn, packetPulledIn))"
attr title "incoming packet lengths, sum"
attr unit b
statistic TestGptpQoS2.FGS.nwtt[0].tt[1].phyLayer.outboundEmitter incomingPacketLengths:histogram
field count 2
field mean 696
field stddev 169.70562748477
field min 576
field max 816
field sum 1392
field sqrsum 997632
attr interpolationmode none
attr recordingmode histogram
attr source "packetLength(merge(packetPushedIn, packetPulledIn))"
attr title "incoming packet lengths"
attr unit b
bin	-inf	0
bin	515	0
bin	520	0
bin	525	0
bin	530	0
bin	535	0
bin	540	0
bin	545	0
bin	550	0
bin	555	0
bin	560	0
bin	565	0
bin	570	0
bin	575	1
bin	580	0
bin	585	0
bin	590	0
bin	595	0
bin	600	0
bin	605	0
bin	610	0
bin	615	0
bin	620	0
bin	625	0
bin	630	0
bin	635	0
bin	640	0
bin	645	0
bin	650	0
bin	655	0
bin	660	0
bin	665	0
bin	670	0
bin	675	0
bin	680	0
bin	685	0
bin	690	0
bin	695	0
bin	700	0
bin	705	0
bin	710	0
bin	715	0
bin	720	0
bin	725	0
bin	730	0
bin	735	0
bin	740	0
bin	745	0
bin	750	0
bin	755	0
bin	760	0
bin	765	0
bin	770	0
bin	775	0
bin	780	0
bin	785	0
bin	790	0
bin	795	0
bin	800	0
bin	805	0
bin	810	0
bin	815	1
bin	820	0
bin	825	0
bin	830	0
bin	835	0
bin	840	0
bin	845	0
bin	850	0
bin	855	0
bin	860	0
bin	865	0
bin	870	0
bin	875	0
bin	880	0
scalar TestGptpQoS2.FGS.nwtt[0].tt[1].phyLayer.outboundEmitter flowIncomingPacketLengths:sum 0
attr interpolationmode none
attr recordingmode sum
attr source "packetLength(demuxFlow(merge(packetPushedIn, packetPulledIn)))"
attr title "flow specific incoming packet lengths, sum"
attr unit b
statistic TestGptpQoS2.FGS.nwtt[0].tt[1].phyLayer.outboundEmitter flowIncomingPacketLengths:histogram
field count 0
field mean -nan
field stddev nan
field min nan
field max nan
field sum 0
field sqrsum 0
attr interpolationmode none
attr recordingmode histogram
attr source "packetLength(demuxFlow(merge(packetPushedIn, packetPulledIn)))"
attr title "flow specific incoming packet lengths"
attr unit b
bin	-inf	0
bin	0	0
bin	1	0
par TestGptpQoS2.FGS.nwtt[0].tt[1].phyLayer.transmitter typename "\"inet.protocolelement.transceiver.PacketTransmitter\""
par TestGptpQoS2.FGS.nwtt[0].tt[1].phyLayer.transmitter displayStringTextFormat "\"processed %p pk (%l)\""
par TestGptpQoS2.FGS.nwtt[0].tt[1].phyLayer.transmitter clockModule "\"TestGptpQoS2.FGS.nwtt[0].tt[1].clock\""
par TestGptpQoS2.FGS.nwtt[0].tt[1].phyLayer.transmitter datarate this.bitrate
attr unit bps
scalar TestGptpQoS2.FGS.nwtt[0].tt[1].phyLayer.transmitter propagationTime 0
statistic TestGptpQoS2.FGS.nwtt[0].tt[1].phyLayer.transmitter utilization:histogram
field count 1
field mean 0
field stddev nan
field min 0
field max 0
field sum 0
field sqrsum 0
attr interpolationmode linear
attr recordingmode histogram
attr source "100 * utilization(count(transmissionStarted) - count(transmissionEnded))"
attr title utilization
attr unit %
bin	-inf	0
bin	-0.5	0
bin	-0.48	0
bin	-0.46	0
bin	-0.44	0
bin	-0.42	0
bin	-0.4	0
bin	-0.38	0
bin	-0.36	0
bin	-0.34	0
bin	-0.32	0
bin	-0.3	0
bin	-0.28	0
bin	-0.26	0
bin	-0.24	0
bin	-0.22	0
bin	-0.2	0
bin	-0.18	0
bin	-0.16	0
bin	-0.14	0
bin	-0.12	0
bin	-0.1	0
bin	-0.08	0
bin	-0.06	0
bin	-0.04	0
bin	-0.02	0
bin	0	1
bin	0.02	0
bin	0.04	0
bin	0.06	0
bin	0.08	0
bin	0.1	0
bin	0.12	0
bin	0.14	0
bin	0.16	0
bin	0.18	0
bin	0.2	0
bin	0.22	0
bin	0.24	0
bin	0.26	0
bin	0.28	0
bin	0.3	0
bin	0.32	0
bin	0.34	0
bin	0.36	0
bin	0.38	0
bin	0.4	0
bin	0.42	0
bin	0.44	0
bin	0.46	0
bin	0.48	0
bin	0.5	0
statistic TestGptpQoS2.FGS.nwtt[0].tt[1].phyLayer.transmitter transmissionTime:histogram
field count 2
field mean 0
field stddev 0
field min 0
field max 0
field sum 0
field sqrsum 0
attr interpolationmode none
attr recordingmode histogram
attr source packetDuration(transmissionEnded)
attr title "transmission time"
attr unit s
bin	-inf	0
bin	-0.5	0
bin	-0.48	0
bin	-0.46	0
bin	-0.44	0
bin	-0.42	0
bin	-0.4	0
bin	-0.38	0
bin	-0.36	0
bin	-0.34	0
bin	-0.32	0
bin	-0.3	0
bin	-0.28	0
bin	-0.26	0
bin	-0.24	0
bin	-0.22	0
bin	-0.2	0
bin	-0.18	0
bin	-0.16	0
bin	-0.14	0
bin	-0.12	0
bin	-0.1	0
bin	-0.08	0
bin	-0.06	0
bin	-0.04	0
bin	-0.02	0
bin	0	2
bin	0.02	0
bin	0.04	0
bin	0.06	0
bin	0.08	0
bin	0.1	0
bin	0.12	0
bin	0.14	0
bin	0.16	0
bin	0.18	0
bin	0.2	0
bin	0.22	0
bin	0.24	0
bin	0.26	0
bin	0.28	0
bin	0.3	0
bin	0.32	0
bin	0.34	0
bin	0.36	0
bin	0.38	0
bin	0.4	0
bin	0.42	0
bin	0.44	0
bin	0.46	0
bin	0.48	0
bin	0.5	0
statistic TestGptpQoS2.FGS.nwtt[0].tt[1].phyLayer.transmitter flowTransmissionTime:histogram
field count 0
field mean -nan
field stddev nan
field min nan
field max nan
field sum 0
field sqrsum 0
attr interpolationmode none
attr recordingmode histogram
attr source packetDuration(demuxFlow(transmissionEnded))
attr title "flow transmission time"
attr unit s
bin	-inf	0
bin	0	0
bin	1	0
par TestGptpQoS2.FGS.nwtt[0].tt[1].phyLayer.phyHeaderChecker typename "\"inet.physicallayer.wired.ethernet.EthernetPhyHeaderChecker\""
par TestGptpQoS2.FGS.nwtt[0].tt[1].phyLayer.phyHeaderChecker displayStringTextFormat "\"dropped %d/%p pk (%k/%l)\""
par TestGptpQoS2.FGS.nwtt[0].tt[1].phyLayer.phyHeaderChecker backpressure false
scalar TestGptpQoS2.FGS.nwtt[0].tt[1].phyLayer.phyHeaderChecker outgoingPackets:count 0
attr recordingmode count
attr source "merge(packetPushedOut, packetPulledOut)"
attr title "outgoing packets, count"
attr unit pk
scalar TestGptpQoS2.FGS.nwtt[0].tt[1].phyLayer.phyHeaderChecker outgoingPacketLengths:sum 0
attr interpolationmode none
attr recordingmode sum
attr source "packetLength(merge(packetPushedOut, packetPulledOut))"
attr title "outgoing packet lengths, sum"
attr unit b
statistic TestGptpQoS2.FGS.nwtt[0].tt[1].phyLayer.phyHeaderChecker outgoingPacketLengths:histogram
field count 0
field mean -nan
field stddev nan
field min nan
field max nan
field sum 0
field sqrsum 0
attr interpolationmode none
attr recordingmode histogram
attr source "packetLength(merge(packetPushedOut, packetPulledOut))"
attr title "outgoing packet lengths"
attr unit b
bin	-inf	0
bin	0	0
bin	1	0
scalar TestGptpQoS2.FGS.nwtt[0].tt[1].phyLayer.phyHeaderChecker flowOutgoingPacketLengths:sum 0
attr interpolationmode none
attr recordingmode sum
attr source "packetLength(demuxFlow(merge(packetPushedOut, packetPulledOut)))"
attr title "flow specific outgoing packet lengths, sum"
attr unit b
statistic TestGptpQoS2.FGS.nwtt[0].tt[1].phyLayer.phyHeaderChecker flowOutgoingPacketLengths:histogram
field count 0
field mean -nan
field stddev nan
field min nan
field max nan
field sum 0
field sqrsum 0
attr interpolationmode none
attr recordingmode histogram
attr source "packetLength(demuxFlow(merge(packetPushedOut, packetPulledOut)))"
attr title "flow specific outgoing packet lengths"
attr unit b
bin	-inf	0
bin	0	0
bin	1	0
scalar TestGptpQoS2.FGS.nwtt[0].tt[1].phyLayer.phyHeaderChecker incomingPackets:count 0
attr recordingmode count
attr source "merge(packetPushedIn, packetPulledIn)"
attr title "incoming packets, count"
attr unit pk
scalar TestGptpQoS2.FGS.nwtt[0].tt[1].phyLayer.phyHeaderChecker incomingPacketLengths:sum 0
attr interpolationmode none
attr recordingmode sum
attr source "packetLength(merge(packetPushedIn, packetPulledIn))"
attr title "incoming packet lengths, sum"
attr unit b
statistic TestGptpQoS2.FGS.nwtt[0].tt[1].phyLayer.phyHeaderChecker incomingPacketLengths:histogram
field count 0
field mean -nan
field stddev nan
field min nan
field max nan
field sum 0
field sqrsum 0
attr interpolationmode none
attr recordingmode histogram
attr source "packetLength(merge(packetPushedIn, packetPulledIn))"
attr title "incoming packet lengths"
attr unit b
bin	-inf	0
bin	0	0
bin	1	0
scalar TestGptpQoS2.FGS.nwtt[0].tt[1].phyLayer.phyHeaderChecker flowIncomingPacketLengths:sum 0
attr interpolationmode none
attr recordingmode sum
attr source "packetLength(demuxFlow(merge(packetPushedIn, packetPulledIn)))"
attr title "flow specific incoming packet lengths, sum"
attr unit b
statistic TestGptpQoS2.FGS.nwtt[0].tt[1].phyLayer.phyHeaderChecker flowIncomingPacketLengths:histogram
field count 0
field mean -nan
field stddev nan
field min nan
field max nan
field sum 0
field sqrsum 0
attr interpolationmode none
attr recordingmode histogram
attr source "packetLength(demuxFlow(merge(packetPushedIn, packetPulledIn)))"
attr title "flow specific incoming packet lengths"
attr unit b
bin	-inf	0
bin	0	0
bin	1	0
scalar TestGptpQoS2.FGS.nwtt[0].tt[1].phyLayer.phyHeaderChecker droppedPackets:count 0
attr recordingmode count
attr source packetDropped
attr title "dropped packets, count"
attr unit pk
scalar TestGptpQoS2.FGS.nwtt[0].tt[1].phyLayer.phyHeaderChecker droppedPacketLengths:sum 0
attr interpolationmode none
attr recordingmode sum
attr source packetLength(packetDropped)
attr title "dropped packet lengths, sum"
attr unit b
statistic TestGptpQoS2.FGS.nwtt[0].tt[1].phyLayer.phyHeaderChecker droppedPacketLengths:histogram
field count 0
field mean -nan
field stddev nan
field min nan
field max nan
field sum 0
field sqrsum 0
attr interpolationmode none
attr recordingmode histogram
attr source packetLength(packetDropped)
attr title "dropped packet lengths"
attr unit b
bin	-inf	0
bin	0	0
bin	1	0
scalar TestGptpQoS2.FGS.nwtt[0].tt[1].phyLayer.phyHeaderChecker flowDroppedPacketLengths:sum 0
attr interpolationmode none
attr recordingmode sum
attr source packetLength(demuxFlow(packetDropped))
attr title "flow specific dropped packet lengths, sum"
attr unit b
statistic TestGptpQoS2.FGS.nwtt[0].tt[1].phyLayer.phyHeaderChecker flowDroppedPacketLengths:histogram
field count 0
field mean -nan
field stddev nan
field min nan
field max nan
field sum 0
field sqrsum 0
attr interpolationmode none
attr recordingmode histogram
attr source packetLength(demuxFlow(packetDropped))
attr title "flow specific dropped packet lengths"
attr unit b
bin	-inf	0
bin	0	0
bin	1	0
par TestGptpQoS2.FGS.nwtt[0].tt[1].phyLayer.inboundEmitter typename "\"inet.protocolelement.common.PacketEmitter\""
par TestGptpQoS2.FGS.nwtt[0].tt[1].phyLayer.inboundEmitter displayStringTextFormat "\"processed %p pk (%l)\""
par TestGptpQoS2.FGS.nwtt[0].tt[1].phyLayer.inboundEmitter packetFilter "(omnetpp::cValueHolder)holder: \"*\""
par TestGptpQoS2.FGS.nwtt[0].tt[1].phyLayer.inboundEmitter direction "\"inbound\""
attr enum undefined,inbound,outbound
par TestGptpQoS2.FGS.nwtt[0].tt[1].phyLayer.inboundEmitter signalName "\"packetReceivedFromLower\""
scalar TestGptpQoS2.FGS.nwtt[0].tt[1].phyLayer.inboundEmitter outgoingPackets:count 0
attr recordingmode count
attr source "merge(packetPushedOut, packetPulledOut)"
attr title "outgoing packets, count"
attr unit pk
scalar TestGptpQoS2.FGS.nwtt[0].tt[1].phyLayer.inboundEmitter outgoingPacketLengths:sum 0
attr interpolationmode none
attr recordingmode sum
attr source "packetLength(merge(packetPushedOut, packetPulledOut))"
attr title "outgoing packet lengths, sum"
attr unit b
statistic TestGptpQoS2.FGS.nwtt[0].tt[1].phyLayer.inboundEmitter outgoingPacketLengths:histogram
field count 0
field mean -nan
field stddev nan
field min nan
field max nan
field sum 0
field sqrsum 0
attr interpolationmode none
attr recordingmode histogram
attr source "packetLength(merge(packetPushedOut, packetPulledOut))"
attr title "outgoing packet lengths"
attr unit b
bin	-inf	0
bin	0	0
bin	1	0
scalar TestGptpQoS2.FGS.nwtt[0].tt[1].phyLayer.inboundEmitter flowOutgoingPacketLengths:sum 0
attr interpolationmode none
attr recordingmode sum
attr source "packetLength(demuxFlow(merge(packetPushedOut, packetPulledOut)))"
attr title "flow specific outgoing packet lengths, sum"
attr unit b
statistic TestGptpQoS2.FGS.nwtt[0].tt[1].phyLayer.inboundEmitter flowOutgoingPacketLengths:histogram
field count 0
field mean -nan
field stddev nan
field min nan
field max nan
field sum 0
field sqrsum 0
attr interpolationmode none
attr recordingmode histogram
attr source "packetLength(demuxFlow(merge(packetPushedOut, packetPulledOut)))"
attr title "flow specific outgoing packet lengths"
attr unit b
bin	-inf	0
bin	0	0
bin	1	0
scalar TestGptpQoS2.FGS.nwtt[0].tt[1].phyLayer.inboundEmitter incomingPackets:count 0
attr recordingmode count
attr source "merge(packetPushedIn, packetPulledIn)"
attr title "incoming packets, count"
attr unit pk
scalar TestGptpQoS2.FGS.nwtt[0].tt[1].phyLayer.inboundEmitter incomingPacketLengths:sum 0
attr interpolationmode none
attr recordingmode sum
attr source "packetLength(merge(packetPushedIn, packetPulledIn))"
attr title "incoming packet lengths, sum"
attr unit b
statistic TestGptpQoS2.FGS.nwtt[0].tt[1].phyLayer.inboundEmitter incomingPacketLengths:histogram
field count 0
field mean -nan
field stddev nan
field min nan
field max nan
field sum 0
field sqrsum 0
attr interpolationmode none
attr recordingmode histogram
attr source "packetLength(merge(packetPushedIn, packetPulledIn))"
attr title "incoming packet lengths"
attr unit b
bin	-inf	0
bin	0	0
bin	1	0
scalar TestGptpQoS2.FGS.nwtt[0].tt[1].phyLayer.inboundEmitter flowIncomingPacketLengths:sum 0
attr interpolationmode none
attr recordingmode sum
attr source "packetLength(demuxFlow(merge(packetPushedIn, packetPulledIn)))"
attr title "flow specific incoming packet lengths, sum"
attr unit b
statistic TestGptpQoS2.FGS.nwtt[0].tt[1].phyLayer.inboundEmitter flowIncomingPacketLengths:histogram
field count 0
field mean -nan
field stddev nan
field min nan
field max nan
field sum 0
field sqrsum 0
attr interpolationmode none
attr recordingmode histogram
attr source "packetLength(demuxFlow(merge(packetPushedIn, packetPulledIn)))"
attr title "flow specific incoming packet lengths"
attr unit b
bin	-inf	0
bin	0	0
bin	1	0
par TestGptpQoS2.FGS.nwtt[0].tt[1].phyLayer.receiver typename "\"inet.protocolelement.transceiver.PacketReceiver\""
par TestGptpQoS2.FGS.nwtt[0].tt[1].phyLayer.receiver displayStringTextFormat "\"processed %p pk (%l)\""
par TestGptpQoS2.FGS.nwtt[0].tt[1].phyLayer.receiver datarate "inf bps"
attr unit bps
statistic TestGptpQoS2.FGS.nwtt[0].tt[1].phyLayer.receiver receptionTime:histogram
field count 0
field mean -nan
field stddev nan
field min nan
field max nan
field sum 0
field sqrsum 0
attr interpolationmode none
attr recordingmode histogram
attr source packetDuration(receptionEnded)
attr title "reception time"
attr unit s
bin	-inf	0
bin	0	0
bin	1	0
statistic TestGptpQoS2.FGS.nwtt[0].tt[1].phyLayer.receiver flowReceptionTime:histogram
field count 0
field mean -nan
field stddev nan
field min nan
field max nan
field sum 0
field sqrsum 0
attr interpolationmode none
attr recordingmode histogram
attr source packetDuration(demuxFlow(receptionEnded))
attr title "flow reception time"
attr unit s
bin	-inf	0
bin	0	0
bin	1	0
par TestGptpQoS2.FGS.nwtt[0].tt[1].phyLayer typename "\"inet.physicallayer.wired.ethernet.EthernetPhyLayer\""
par TestGptpQoS2.FGS.nwtt[0].tt[1].phyLayer bitrate this.bitrate
attr unit bps
par TestGptpQoS2.FGS.nwtt[0].tt[1].delayLayer.upperLayerIn.channel typename "\"ned.IdealChannel\""
par TestGptpQoS2.FGS.nwtt[0].tt[1].delayLayer.egress.out.channel typename "\"ned.IdealChannel\""
par TestGptpQoS2.FGS.nwtt[0].tt[1].delayLayer.lowerLayerIn.channel typename "\"ned.IdealChannel\""
par TestGptpQoS2.FGS.nwtt[0].tt[1].delayLayer.egress typename "\"src.delayer.FGDelayer\""
par TestGptpQoS2.FGS.nwtt[0].tt[1].delayLayer.egress displayStringTextFormat "\"processed %p pk (%l)\""
par TestGptpQoS2.FGS.nwtt[0].tt[1].delayLayer.egress clockModule "\"TestGptpQoS2.FGS.nwtt[0].tt[1].clock\""
par TestGptpQoS2.FGS.nwtt[0].tt[1].delayLayer.egress schedulingPriority 0
par TestGptpQoS2.FGS.nwtt[0].tt[1].delayLayer.egress scheduleZeroDelay true
par TestGptpQoS2.FGS.nwtt[0].tt[1].delayLayer.egress delay 0s
attr unit s
par TestGptpQoS2.FGS.nwtt[0].tt[1].delayLayer.egress delayQfi "{ 1: rngProvider(\"histogramContainer\", \"D2D\"), 3: rngProvider(\"histogramContainer\", \"D2D\"), 4: rngProvider(\"histogramContainer\", \"D2D\"), 65: rngProvider(\"histogramContainer\", \"D2D\"), 67: rngProvider(\"histogramContainer\", \"D2D\"), 72: rngProvider(\"histogramContainer\", \"D2D\"), 86: rngProvider(\"histogramContainer\", \"D2D\"), 88: rngProvider(\"histogramContainer\", \"D2D\") }"
attr mutable ""
attr unit s
par TestGptpQoS2.FGS.nwtt[0].tt[1].delayLayer typename "\"src.delayer.FGDelayLayer\""
par TestGptpQoS2.FGS.nwtt[0].tt[1].delayLayer delay 0s
attr mutable ""
attr unit s
par TestGptpQoS2.FGS.nwtt[0].tt[1] typename "\"src.devices.tsntranslator.TTInterface\""
par TestGptpQoS2.FGS.nwtt[0].tt[1] displayStringTextFormat "\"%a (%i)\\n%m\""
par TestGptpQoS2.FGS.nwtt[0].tt[1] recordPcap false
par TestGptpQoS2.FGS.nwtt[0].tt[1] numPcapRecorders 0
par TestGptpQoS2.FGS.nwtt[0].tt[1] protocol "\"ethernetmac\""
par TestGptpQoS2.FGS.nwtt[0].tt[1] broadcast true
par TestGptpQoS2.FGS.nwtt[0].tt[1] multicast true
par TestGptpQoS2.FGS.nwtt[0].tt[1] address "\"0A-AA-00-00-00-0C\""
attr mutable ""
par TestGptpQoS2.FGS.nwtt[0].tt[1] bitrate "inf bps"
attr unit bps
par TestGptpQoS2.FGS.nwtt[0].tt[1] mtu 1500B
attr unit B
par TestGptpQoS2.FGS.nwtt[0].tt[1] interfaceTableModule "\"TestGptpQoS2.FGS.nwtt[0].interfaceTable\""
scalar TestGptpQoS2.FGS.nwtt[0].tt[1] packetDropInterfaceDown:count 0
attr interpolationmode none
attr recordingmode count
attr source packetDropReasonIsInterfaceDown(packetDropped)
attr title "packet drops: interface down, count"
scalar TestGptpQoS2.FGS.nwtt[0].tt[1] packetDropInterfaceDown:sum(packetBytes) 0
attr interpolationmode none
attr recordingmode sum(packetBytes)
attr source packetDropReasonIsInterfaceDown(packetDropped)
attr title "packet drops: interface down, sum(packetBytes)"
scalar TestGptpQoS2.FGS.nwtt[0].tt[1] packetDropNoCarrier:count 0
attr interpolationmode none
attr recordingmode count
attr source packetDropReasonIsNoCarrier(packetDropped)
attr title "packet drops: no carrier, count"
scalar TestGptpQoS2.FGS.nwtt[0].tt[1] packetDropNoCarrier:sum(packetBytes) 0
attr interpolationmode none
attr recordingmode sum(packetBytes)
attr source packetDropReasonIsNoCarrier(packetDropped)
attr title "packet drops: no carrier, sum(packetBytes)"
par TestGptpQoS2.FGS.nwtt[0] typename "\"src.devices.tsntranslator.TT\""
par TestGptpQoS2.FGS.nwtt[0] recordPcap false
par TestGptpQoS2.FGS.nwtt[0] numPcapRecorders 0
par TestGptpQoS2.FGS.nwtt[0] numApps 0
par TestGptpQoS2.FGS.nwtt[0] hasStatus false
par TestGptpQoS2.FGS.nwtt[0] hasStp false
par TestGptpQoS2.FGS.nwtt[0] hasGptp true
par TestGptpQoS2.FGS.nwtt[0] hasCutthroughSwitching false
par TestGptpQoS2.FGS.nwtt[0] fcsMode "\"declared\""
attr enum declared,computed
par TestGptpQoS2.FGS.nwtt[0] spanningTreeProtocol "\"Stp\""
par TestGptpQoS2.FGS.nwtt[0] numEthInterfaces 0
par TestGptpQoS2.FGS.nwtt[0] hasTimeSynchronization true
par TestGptpQoS2.FGS.nwtt[0] hasIngressTrafficFiltering false
par TestGptpQoS2.FGS.nwtt[0] hasEgressTrafficShaping false
par TestGptpQoS2.FGS.nwtt[0] hasStreamRedundancy false
par TestGptpQoS2.FGS.nwtt[0] hasIncomingStreams false
par TestGptpQoS2.FGS.nwtt[0] hasOutgoingStreams false
par TestGptpQoS2.FGS.nwtt[0] hasFramePreemption false
par TestGptpQoS2.FGS.nwtt[0] numTtInterfaces 0
par TestGptpQoS2.FGS.nwtt[0] isDstt false
par TestGptpQoS2.FGS.nwtt[0] schedule false
par TestGptpQoS2.FGS.nwtt[0] delayUplink 0s
attr mutable ""
attr unit s
par TestGptpQoS2.FGS.nwtt[0] delayDownlink "rngProvider(\"histogramContainer\", \"Downlink\")"
attr mutable ""
attr unit s
par TestGptpQoS2.FGS.nwtt[0] delayD2D 0s
attr mutable ""
attr unit s
par TestGptpQoS2.FGS typename "\"src.devices.FiveGSv2\""
par TestGptpQoS2.FGS scheduleFiveG false
par TestGptpQoS2.FGS numUEs 1
par TestGptpQoS2.FGS numUPFs 1
par TestGptpQoS2.FGS delayConfig "<delays/> at content:1"
par TestGptpQoS2.FGS bgbW 350
par TestGptpQoS2 typename "\"simulations.TSNonly2.TestGptpQoS2\""
par TestGptpQoS2 recordPcap false
par TestGptpQoS2 numPcapRecorders 0
par TestGptpQoS2 hasGlobalArp true

